       9
 i =        0, time =        0.000, E =      -298.8512503973
 Au         4.2000000000        4.2000000000        1.4000000000
 Au         4.2000000000        4.2000000000        4.2000000000
 Au         4.2000000000        4.2000000000        7.0000000000
 Au         4.2000000000        4.2000000000        9.8000000000
 Au         4.2000000000        4.2000000000       12.6000000000
 Au         4.2000000000        4.2000000000       15.4000000000
 Au         4.2000000000        4.2000000000       18.2000000000
 Au         4.2000000000        4.2000000000       21.0000000000
 Au         4.2000000000        4.2000000000       23.8000000000
