       9
 i =        0, time =        0.000, E =      -298.8512503973
 Au         0.0000000000        0.0000000000        0.0000000000
 Au         0.0000000000        0.0000000000        0.0000000000
 Au         0.0000000000        0.0000000000        0.0000000000
 Au         0.0000000002        0.0000000002       -0.0000006166
 Au         0.0000000001        0.0000000001       -0.0000000034
 Au         0.0000000002        0.0000000002        0.0000006115
 Au         0.0000000000        0.0000000000        0.0000000000
 Au         0.0000000000        0.0000000000        0.0000000000
 Au         0.0000000000        0.0000000000        0.0000000000
