     113
 i =        0, time =        0.000, E =     -3690.5742525728
 Au         0.0000000000        0.0000000000        0.0000000000
 Au         0.0000000000        0.0000000000        0.0000000000
 Au         0.0000000000        0.0000000000        0.0000000000
 Au         0.0000000000        0.0000000000        0.0000000000
 Au         0.0000000000        0.0000000000        0.0000000000
 Au         0.0000000000        0.0000000000        0.0000000000
 Au         0.0000000000        0.0000000000        0.0000000000
 Au         0.0000000000        0.0000000000        0.0000000000
 Au         0.0000000000        0.0000000000        0.0000000000
 Au         0.0000000000        0.0000000000        0.0000000000
 Au         0.0000000000        0.0000000000        0.0000000000
 Au         0.0000000000        0.0000000000        0.0000000000
 Au         0.0000000000        0.0000000000        0.0000000000
 Au         0.0000000000        0.0000000000        0.0000000000
 Au         0.0000000000        0.0000000000        0.0000000000
 Au         0.0000000000        0.0000000000        0.0000000000
 Au         0.0000000000        0.0000000000        0.0000000000
 Au         0.0000000000        0.0000000000        0.0000000000
 Au         0.0000000000        0.0000000000        0.0000000000
 Au         0.0000000000        0.0000000000        0.0000000000
 Au         0.0000000000        0.0000000000        0.0000000000
 Au         0.0000000000        0.0000000000        0.0000000000
 Au         0.0000000000        0.0000000000        0.0000000000
 Au         0.0000000000        0.0000000000        0.0000000000
 Au         0.0000000000        0.0000000000        0.0000000000
 Au         0.0000000000        0.0000000000        0.0000000000
 Au         0.0000000000        0.0000000000        0.0000000000
 Au         0.0000000000        0.0000000000        0.0000000000
 Au         0.0000000000        0.0000000000        0.0000000000
 Au         0.0000000000        0.0000000000        0.0000000000
 Au         0.0000000000        0.0000000000        0.0000000000
 Au         0.0000000000        0.0000000000        0.0000000000
 Au         0.0000000000        0.0000000000        0.0000000000
 Au         0.0000000000        0.0000000000        0.0000000000
 Au         0.0000000000        0.0000000000        0.0000000000
 Au         0.0000000000        0.0000000000        0.0000000000
 Au         0.0000000000        0.0000000000        0.0000000000
 Au         0.0000000000        0.0000000000        0.0000000000
 Au         0.0000000000        0.0000000000        0.0000000000
 Au         0.0000000000        0.0000000000        0.0000000000
 Au         0.0000000000        0.0000000000        0.0000000000
 Au         0.0000000000        0.0000000000        0.0000000000
 Au         0.0000000000        0.0000000000        0.0000000000
 Au         0.0000000000        0.0000000000        0.0000000000
 Au         0.0000000000        0.0000000000        0.0000000000
 Au         0.0000000000        0.0000000000        0.0000000000
 Au         0.0000000000        0.0000000000        0.0000000000
 Au         0.0000000000        0.0000000000        0.0000000000
 Au         0.0000000000        0.0000000000        0.0000000000
 Au         0.0000000000        0.0000000000        0.0000000000
 Au         0.0000000000        0.0000000000        0.0000000000
 Au         0.0000000000        0.0000000000        0.0000000000
 Au         0.0000000000        0.0000000000        0.0000000000
 Au         0.0000000000        0.0000000000        0.0000000000
 Au         0.0000000000        0.0000000000        0.0000000000
 Au         0.0000000000        0.0000000000        0.0000000000
 Au         0.0000000000        0.0000000000        0.0000000000
 Au         0.0000000000        0.0000000000        0.0000000000
 Au        -0.0000443980       -0.0002550069       -0.0081672584
 Au         0.0000214348        0.0001437121        0.0100639455
  H         0.0000089887        0.0000074475       -0.0001429362
  H        -0.0000950813       -0.0000427392       -0.0001184390
 Au         0.0000919401        0.0000391163       -0.0073396084
 Au        -0.0001053820       -0.0000416478       -0.0017774120
 Au         0.0000000000        0.0000000000        0.0000000000
 Au         0.0000000000        0.0000000000        0.0000000000
 Au         0.0000000000        0.0000000000        0.0000000000
 Au         0.0000000000        0.0000000000        0.0000000000
 Au         0.0000000000        0.0000000000        0.0000000000
 Au         0.0000000000        0.0000000000        0.0000000000
 Au         0.0000000000        0.0000000000        0.0000000000
 Au         0.0000000000        0.0000000000        0.0000000000
 Au         0.0000000000        0.0000000000        0.0000000000
 Au         0.0000000000        0.0000000000        0.0000000000
 Au         0.0000000000        0.0000000000        0.0000000000
 Au         0.0000000000        0.0000000000        0.0000000000
 Au         0.0000000000        0.0000000000        0.0000000000
 Au         0.0000000000        0.0000000000        0.0000000000
 Au         0.0000000000        0.0000000000        0.0000000000
 Au         0.0000000000        0.0000000000        0.0000000000
 Au         0.0000000000        0.0000000000        0.0000000000
 Au         0.0000000000        0.0000000000        0.0000000000
 Au         0.0000000000        0.0000000000        0.0000000000
 Au         0.0000000000        0.0000000000        0.0000000000
 Au         0.0000000000        0.0000000000        0.0000000000
 Au         0.0000000000        0.0000000000        0.0000000000
 Au         0.0000000000        0.0000000000        0.0000000000
 Au         0.0000000000        0.0000000000        0.0000000000
 Au         0.0000000000        0.0000000000        0.0000000000
 Au         0.0000000000        0.0000000000        0.0000000000
 Au         0.0000000000        0.0000000000        0.0000000000
 Au         0.0000000000        0.0000000000        0.0000000000
 Au         0.0000000000        0.0000000000        0.0000000000
 Au         0.0000000000        0.0000000000        0.0000000000
 Au         0.0000000000        0.0000000000        0.0000000000
 Au         0.0000000000        0.0000000000        0.0000000000
 Au         0.0000000000        0.0000000000        0.0000000000
 Au         0.0000000000        0.0000000000        0.0000000000
 Au         0.0000000000        0.0000000000        0.0000000000
 Au         0.0000000000        0.0000000000        0.0000000000
 Au         0.0000000000        0.0000000000        0.0000000000
 Au         0.0000000000        0.0000000000        0.0000000000
 Au         0.0000000000        0.0000000000        0.0000000000
 Au         0.0000000000        0.0000000000        0.0000000000
 Au         0.0000000000        0.0000000000        0.0000000000
 Au         0.0000000000        0.0000000000        0.0000000000
 Au         0.0000000000        0.0000000000        0.0000000000
 Au         0.0000000000        0.0000000000        0.0000000000
 Au         0.0000000000        0.0000000000        0.0000000000
 Au         0.0000000000        0.0000000000        0.0000000000
 Au         0.0000000000        0.0000000000        0.0000000000
 Au         0.0000000000        0.0000000000        0.0000000000
 Au         0.0000000000        0.0000000000        0.0000000000
