       4
 i =        1, E =      -133.1464371997
 Au         1.0420274541        1.0420274541        1.0420274541
 Au         1.0420274541        3.1260807048        3.1260807048
 Au         3.1260807048        1.0420274541        3.1260807048
 Au         3.1260807048        3.1260807048        1.0420274541
       4
 i =        2, E =      -133.1467644140
 Au         1.0362826911        1.0362826911        1.0362826911
 Au         1.0362826911        3.1088487643        3.1088487643
 Au         3.1088487643        1.0362826911        3.1088487643
 Au         3.1088487643        3.1088487643        1.0362826911
       4
 i =        3, E =      -133.1467655686
 Au         1.0365920611        1.0365920611        1.0365920611
 Au         1.0365920611        3.1097770799        3.1097770799
 Au         3.1097770799        1.0365920611        3.1097770799
 Au         3.1097770799        3.1097770799        1.0365920611
       4
 i =        4, E =      -133.1467660877
 Au         1.0365920611        1.0365920611        1.0365920611
 Au         1.0365920611        3.1097770799        3.1097770799
 Au         3.1097770799        1.0365920611        3.1097770799
 Au         3.1097770799        3.1097770799        1.0365920611
