       4
 i =        1, E =      -133.1463342793
 Au         1.0428221468        1.0428221467        1.0428221468
 Au         1.0428221468        3.1284678532        3.1284678531
 Au         3.1284678532        1.0428221468        3.1284678533
 Au         3.1284678532        3.1284678531        1.0428221468
       4
 i =        2, E =      -133.1463431468
 Au         1.0428221468        1.0428221467        1.0428221468
 Au         1.0428221468        3.1284678532        3.1284678531
 Au         3.1284678532        1.0428221468        3.1284678533
 Au         3.1284678532        3.1284678531        1.0428221468
