     116
 i =        1, E =     -3518.0685773381
 Au         0.0000000000        0.0000000000        0.0000000000
 Au         0.0000000000        4.1460000000        0.0000000000
 Au         2.0730000000        2.0730000000        0.0000000000
 Au         2.0730000000        6.2190000000        0.0000000000
 Au         4.1460000000        0.0000000000        0.0000000000
 Au         4.1460000000        4.1460000000        0.0000000000
 Au         6.2190000000        2.0730000000        0.0000000000
 Au         6.2190000000        6.2190000000        0.0000000000
 Au         0.0000000000        2.0730000000        2.0730000000
 Au         0.0000000000        6.2190000000        2.0730000000
 Au         2.0730000000        0.0000000000        2.0730000000
 Au         2.0730000000        4.1460000000        2.0730000000
 Au         4.1460000000        2.0730000000        2.0730000000
 Au         4.1460000000        6.2190000000        2.0730000000
 Au         6.2190000000        0.0000000000        2.0730000000
 Au         6.2190000000        4.1460000000        2.0730000000
 Au         0.0000000000        0.0000000000        4.1460000000
 Au         0.0000000000        4.1460000000        4.1460000000
 Au         2.0730000000        2.0730000000        4.1460000000
 Au         2.0730000000        6.2190000000        4.1460000000
 Au         4.1460000000        0.0000000000        4.1460000000
 Au         4.1460000000        4.1460000000        4.1460000000
 Au         6.2190000000        2.0730000000        4.1460000000
 Au         6.2190000000        6.2190000000        4.1460000000
 Au         0.0000000000        2.0730000000        6.2190000000
 Au         0.0000000000        6.2190000000        6.2190000000
 Au         2.0730000000        0.0000000000        6.2190000000
 Au         2.0730000000        4.1460000000        6.2190000000
 Au         4.1460000000        2.0730000000        6.2190000000
 Au         4.1460000000        6.2190000000        6.2190000000
 Au         6.2190000000        0.0000000000        6.2190000000
 Au         6.2190000000        4.1460000000        6.2190000000
 Au         0.0000000000        0.0000000000        8.2920000000
 Au         0.0000000000        4.1460000000        8.2920000000
 Au         2.0730000000        2.0730000000        8.2920000000
 Au         2.0730000000        6.2190000000        8.2920000000
 Au         4.1460000000        0.0000000000        8.2920000000
 Au         4.1460000000        4.1460000000        8.2920000000
 Au         6.2190000000        2.0730000000        8.2920000000
 Au         6.2190000000        6.2190000000        8.2920000000
 Au        -0.0000027913        2.0730004081       10.3665538345
 Au        -0.0000012479        6.2189958837       10.3643709025
 Au         2.0729709636        0.0000317614       10.3642388828
 Au         2.0729685606        4.1459737494       10.3642320422
 Au         4.1459987154        2.0729940167       10.3598488916
 Au         4.1459990447        6.2189909556       10.3664667488
 Au         6.2190305084        0.0000318624       10.3642368396
 Au         6.2190329604        4.1459736658       10.3642299031
 Au         0.0000024465       -0.0003910667       12.4383095839
 Au         0.0000024983        4.1463969798       12.4383154578
 Au         2.0628955639        2.0730066159       12.4378888373
 Au         2.0725650942        6.2190001959       12.4382556062
 Au         4.1459991743       -0.0108334599       12.4366352262
 Au         4.1459992669        4.1567718937       12.4366640192
 Au         6.2290775998        2.0730067934       12.4379060175
 Au         6.2194357323        6.2190002555       12.4382561346
  S         4.1460897453        2.0732549172       14.0056245420
  C         4.1454389288        2.0782002574       15.7765493448
  H         2.0269600864        2.1028512001       15.9414981865
  H         6.2643614606        2.1028484638       15.9476964489
  C         2.9540831527        2.0817252440       16.4906598170
  C         5.3359262979        2.0817401637       16.4928748362
  C         2.9452202738        2.0622710729       17.8685473350
  C         5.3268470068        2.0622867735       17.8702646392
  H         2.0166135577        2.0411553228       18.4133127763
  H         6.2540376158        2.0411524696       18.4194807487
  C         4.1358569735        2.0658743108       18.5849192976
  S         4.1454808860        2.0727142949       20.3555391489
 Au        -0.0000053190       -0.0003971485       21.9226841154
 Au        -0.0000053125        4.1463905252       21.9226907478
 Au         2.0629648822        2.0729959091       21.9230818111
 Au         2.0725618240        6.2189968399       21.9227433040
 Au         4.1460029605       -0.0107687026       21.9243391179
 Au         4.1460029635        4.1568435097       21.9243713235
 Au         6.2291526090        2.0729959590       21.9231308029
 Au         6.2190000000        6.2190000000       21.9230000000
 Au         0.0000000000        2.0730000000       23.9960000000
 Au         0.0000000000        6.2190000000       23.9960000000
 Au         2.0730000000        0.0000000000       23.9960000000
 Au         2.0730000000        4.1460000000       23.9960000000
 Au         4.1460000000        2.0730000000       23.9960000000
 Au         4.1460000000        6.2190000000       23.9960000000
 Au         6.2190000000        0.0000000000       23.9960000000
 Au         6.2190000000        4.1460000000       23.9960000000
 Au         0.0000000000        0.0000000000       26.0690000000
 Au         0.0000000000        4.1460000000       26.0690000000
 Au         2.0730000000        2.0730000000       26.0690000000
 Au         2.0730000000        6.2190000000       26.0690000000
 Au         4.1460000000        0.0000000000       26.0690000000
 Au         4.1460000000        4.1460000000       26.0690000000
 Au         6.2190000000        2.0730000000       26.0690000000
 Au         6.2190000000        6.2190000000       26.0690000000
 Au         0.0000000000        2.0730000000       28.1420000000
 Au         0.0000000000        6.2190000000       28.1420000000
 Au         2.0730000000        0.0000000000       28.1420000000
 Au         2.0730000000        4.1460000000       28.1420000000
 Au         4.1460000000        2.0730000000       28.1420000000
 Au         4.1460000000        6.2190000000       28.1420000000
 Au         6.2190000000        0.0000000000       28.1420000000
 Au         6.2190000000        4.1460000000       28.1420000000
 Au         0.0000000000        0.0000000000       30.2150000000
 Au         0.0000000000        4.1460000000       30.2150000000
 Au         2.0730000000        2.0730000000       30.2150000000
 Au         2.0730000000        6.2190000000       30.2150000000
 Au         4.1460000000        0.0000000000       30.2150000000
 Au         4.1460000000        4.1460000000       30.2150000000
 Au         6.2190000000        2.0730000000       30.2150000000
 Au         6.2190000000        6.2190000000       30.2150000000
 Au         0.0000000000        2.0730000000       32.2880000000
 Au         0.0000000000        6.2190000000       32.2880000000
 Au         2.0730000000        0.0000000000       32.2880000000
 Au         2.0730000000        4.1460000000       32.2880000000
 Au         4.1460000000        2.0730000000       32.2880000000
 Au         4.1460000000        6.2190000000       32.2880000000
 Au         6.2190000000        0.0000000000       32.2880000000
 Au         6.2190000000        4.1460000000       32.2880000000
     116
 i =        2, E =     -3518.0843841463
 Au         0.0000000000        0.0000000000        0.0000000000
 Au         0.0000000000        4.1460000000        0.0000000000
 Au         2.0730000000        2.0730000000        0.0000000000
 Au         2.0730000000        6.2190000000        0.0000000000
 Au         4.1460000000        0.0000000000        0.0000000000
 Au         4.1460000000        4.1460000000        0.0000000000
 Au         6.2190000000        2.0730000000        0.0000000000
 Au         6.2190000000        6.2190000000        0.0000000000
 Au         0.0000000000        2.0730000000        2.0730000000
 Au         0.0000000000        6.2190000000        2.0730000000
 Au         2.0730000000        0.0000000000        2.0730000000
 Au         2.0730000000        4.1460000000        2.0730000000
 Au         4.1460000000        2.0730000000        2.0730000000
 Au         4.1460000000        6.2190000000        2.0730000000
 Au         6.2190000000        0.0000000000        2.0730000000
 Au         6.2190000000        4.1460000000        2.0730000000
 Au         0.0000000000        0.0000000000        4.1460000000
 Au         0.0000000000        4.1460000000        4.1460000000
 Au         2.0730000000        2.0730000000        4.1460000000
 Au         2.0730000000        6.2190000000        4.1460000000
 Au         4.1460000000        0.0000000000        4.1460000000
 Au         4.1460000000        4.1460000000        4.1460000000
 Au         6.2190000000        2.0730000000        4.1460000000
 Au         6.2190000000        6.2190000000        4.1460000000
 Au         0.0000000000        2.0730000000        6.2190000000
 Au         0.0000000000        6.2190000000        6.2190000000
 Au         2.0730000000        0.0000000000        6.2190000000
 Au         2.0730000000        4.1460000000        6.2190000000
 Au         4.1460000000        2.0730000000        6.2190000000
 Au         4.1460000000        6.2190000000        6.2190000000
 Au         6.2190000000        0.0000000000        6.2190000000
 Au         6.2190000000        4.1460000000        6.2190000000
 Au         0.0000000000        0.0000000000        8.2920000000
 Au         0.0000000000        4.1460000000        8.2920000000
 Au         2.0730000000        2.0730000000        8.2920000000
 Au         2.0730000000        6.2190000000        8.2920000000
 Au         4.1460000000        0.0000000000        8.2920000000
 Au         4.1460000000        4.1460000000        8.2920000000
 Au         6.2190000000        2.0730000000        8.2920000000
 Au         6.2190000000        6.2190000000        8.2920000000
 Au        -0.0000010339        2.0730043263       10.3760081177
 Au        -0.0000031982        6.2189682231       10.3603050477
 Au         2.0728711367        0.0004847061       10.3589778493
 Au         2.0728555832        4.1455612266       10.3589201393
 Au         4.1460052724        2.0729466106       10.3272515198
 Au         4.1459929853        6.2189081299       10.3750226224
 Au         6.2191271130        0.0004903231       10.3589796803
 Au         6.2191429886        4.1455557333       10.3589214389
 Au         0.0000095602       -0.0045389518       12.4408200065
 Au         0.0000099420        4.1505896519       12.4408722097
 Au         1.9957779716        2.0730352168       12.4385120340
 Au         2.0679804777        6.2190062960       12.4404049656
 Au         4.1459886563       -0.0831655260       12.4280400166
 Au         4.1459892156        4.2287112137       12.4282530411
 Au         6.2962312646        2.0730359984       12.4385126935
 Au         6.2240168352        6.2190066590       12.4404065734
  S         4.1461454060        2.0752803025       14.0081889185
  C         4.1411904087        2.0853094258       15.8109410175
  H         1.9821193153        2.0993472412       15.9267864053
  H         6.3115809516        2.0993589957       15.9338340542
  C         2.9208968214        2.0779592571       16.4708743928
  C         5.3616495932        2.0779617390       16.4775028254
  C         2.9200533667        2.0661521897       17.8845139641
  C         5.3608104525        2.0661083791       17.8902780309
  H         1.9692516413        2.0446631769       18.4274924901
  H         6.2986895492        2.0446828536       18.4339700562
  C         4.1413762038        2.0592817181       18.5490587018
  S         4.1425415064        2.0704653174       20.3530154251
 Au        -0.0000475710       -0.0043895289       21.9200890553
 Au        -0.0000477777        4.1503318202       21.9201474824
 Au         1.9954808655        2.0729898038       21.9221396124
 Au         2.0681589374        6.2189703522       21.9205305688
 Au         4.1460389950       -0.0832086682       21.9324572629
 Au         4.1460389592        4.2297376556       21.9326925802
 Au         6.2970653571        2.0729896449       21.9223205112
 Au         6.2190000000        6.2190000000       21.9230000000
 Au         0.0000000000        2.0730000000       23.9960000000
 Au         0.0000000000        6.2190000000       23.9960000000
 Au         2.0730000000        0.0000000000       23.9960000000
 Au         2.0730000000        4.1460000000       23.9960000000
 Au         4.1460000000        2.0730000000       23.9960000000
 Au         4.1460000000        6.2190000000       23.9960000000
 Au         6.2190000000        0.0000000000       23.9960000000
 Au         6.2190000000        4.1460000000       23.9960000000
 Au         0.0000000000        0.0000000000       26.0690000000
 Au         0.0000000000        4.1460000000       26.0690000000
 Au         2.0730000000        2.0730000000       26.0690000000
 Au         2.0730000000        6.2190000000       26.0690000000
 Au         4.1460000000        0.0000000000       26.0690000000
 Au         4.1460000000        4.1460000000       26.0690000000
 Au         6.2190000000        2.0730000000       26.0690000000
 Au         6.2190000000        6.2190000000       26.0690000000
 Au         0.0000000000        2.0730000000       28.1420000000
 Au         0.0000000000        6.2190000000       28.1420000000
 Au         2.0730000000        0.0000000000       28.1420000000
 Au         2.0730000000        4.1460000000       28.1420000000
 Au         4.1460000000        2.0730000000       28.1420000000
 Au         4.1460000000        6.2190000000       28.1420000000
 Au         6.2190000000        0.0000000000       28.1420000000
 Au         6.2190000000        4.1460000000       28.1420000000
 Au         0.0000000000        0.0000000000       30.2150000000
 Au         0.0000000000        4.1460000000       30.2150000000
 Au         2.0730000000        2.0730000000       30.2150000000
 Au         2.0730000000        6.2190000000       30.2150000000
 Au         4.1460000000        0.0000000000       30.2150000000
 Au         4.1460000000        4.1460000000       30.2150000000
 Au         6.2190000000        2.0730000000       30.2150000000
 Au         6.2190000000        6.2190000000       30.2150000000
 Au         0.0000000000        2.0730000000       32.2880000000
 Au         0.0000000000        6.2190000000       32.2880000000
 Au         2.0730000000        0.0000000000       32.2880000000
 Au         2.0730000000        4.1460000000       32.2880000000
 Au         4.1460000000        2.0730000000       32.2880000000
 Au         4.1460000000        6.2190000000       32.2880000000
 Au         6.2190000000        0.0000000000       32.2880000000
 Au         6.2190000000        4.1460000000       32.2880000000
     116
 i =        3, E =     -3518.0868794289
 Au         0.0000000000        0.0000000000        0.0000000000
 Au         0.0000000000        4.1460000000        0.0000000000
 Au         2.0730000000        2.0730000000        0.0000000000
 Au         2.0730000000        6.2190000000        0.0000000000
 Au         4.1460000000        0.0000000000        0.0000000000
 Au         4.1460000000        4.1460000000        0.0000000000
 Au         6.2190000000        2.0730000000        0.0000000000
 Au         6.2190000000        6.2190000000        0.0000000000
 Au         0.0000000000        2.0730000000        2.0730000000
 Au         0.0000000000        6.2190000000        2.0730000000
 Au         2.0730000000        0.0000000000        2.0730000000
 Au         2.0730000000        4.1460000000        2.0730000000
 Au         4.1460000000        2.0730000000        2.0730000000
 Au         4.1460000000        6.2190000000        2.0730000000
 Au         6.2190000000        0.0000000000        2.0730000000
 Au         6.2190000000        4.1460000000        2.0730000000
 Au         0.0000000000        0.0000000000        4.1460000000
 Au         0.0000000000        4.1460000000        4.1460000000
 Au         2.0730000000        2.0730000000        4.1460000000
 Au         2.0730000000        6.2190000000        4.1460000000
 Au         4.1460000000        0.0000000000        4.1460000000
 Au         4.1460000000        4.1460000000        4.1460000000
 Au         6.2190000000        2.0730000000        4.1460000000
 Au         6.2190000000        6.2190000000        4.1460000000
 Au         0.0000000000        2.0730000000        6.2190000000
 Au         0.0000000000        6.2190000000        6.2190000000
 Au         2.0730000000        0.0000000000        6.2190000000
 Au         2.0730000000        4.1460000000        6.2190000000
 Au         4.1460000000        2.0730000000        6.2190000000
 Au         4.1460000000        6.2190000000        6.2190000000
 Au         6.2190000000        0.0000000000        6.2190000000
 Au         6.2190000000        4.1460000000        6.2190000000
 Au         0.0000000000        0.0000000000        8.2920000000
 Au         0.0000000000        4.1460000000        8.2920000000
 Au         2.0730000000        2.0730000000        8.2920000000
 Au         2.0730000000        6.2190000000        8.2920000000
 Au         4.1460000000        0.0000000000        8.2920000000
 Au         4.1460000000        4.1460000000        8.2920000000
 Au         6.2190000000        2.0730000000        8.2920000000
 Au         6.2190000000        6.2190000000        8.2920000000
 Au         0.0000055887        2.0730073008       10.3760627900
 Au        -0.0000027347        6.2189612303       10.3596596949
 Au         2.0730644954        0.0009993105       10.3577708353
 Au         2.0730484145        4.1450583901       10.3576951961
 Au         4.1460102368        2.0729270017       10.3225123378
 Au         4.1459917664        6.2188536213       10.3742371503
 Au         6.2189308839        0.0010065952       10.3577777337
 Au         6.2189474415        4.1450513170       10.3577013926
 Au         0.0000112111       -0.0080533332       12.4420062325
 Au         0.0000117533        4.1541244238       12.4420730696
 Au         1.9821209053        2.0730191006       12.4407983216
 Au         2.0640859860        6.2190155813       12.4415150077
 Au         4.1459864819       -0.0981265401       12.4277094856
 Au         4.1459871791        4.2436078607       12.4279627867
 Au         6.3099389195        2.0730200964       12.4407877828
 Au         6.2279071695        6.2190160744       12.4415141048
  S         4.1460839050        2.0761597699       14.0040131811
  C         4.1425264305        2.0858844265       15.8044538363
  H         1.9753067403        2.0979629512       15.9242591927
  H         6.3146272063        2.0979047176       15.9334739689
  C         2.9070677297        2.0783173201       16.4814937852
  C         5.3770545259        2.0783945277       16.4851469710
  C         2.9046712320        2.0657939458       17.8763371442
  C         5.3749389433        2.0658365356       17.8792521212
  H         1.9664288036        2.0461235780       18.4279144895
  H         6.3058836254        2.0460612518       18.4366831499
  C         4.1397219654        2.0587985570       18.5563224694
  S         4.1419230650        2.0695351188       20.3564748270
 Au        -0.0000959504       -0.0076081609       21.9188133964
 Au        -0.0000966811        4.1535260984       21.9188876508
 Au         1.9810179643        2.0730170271       21.9195546600
 Au         2.0645711319        6.2189562714       21.9192901066
 Au         4.1460067223       -0.0987476947       21.9323655057
 Au         4.1460070951        4.2453296699       21.9326401341
 Au         6.3114353726        2.0730168726       21.9197144601
 Au         6.2190000000        6.2190000000       21.9230000000
 Au         0.0000000000        2.0730000000       23.9960000000
 Au         0.0000000000        6.2190000000       23.9960000000
 Au         2.0730000000        0.0000000000       23.9960000000
 Au         2.0730000000        4.1460000000       23.9960000000
 Au         4.1460000000        2.0730000000       23.9960000000
 Au         4.1460000000        6.2190000000       23.9960000000
 Au         6.2190000000        0.0000000000       23.9960000000
 Au         6.2190000000        4.1460000000       23.9960000000
 Au         0.0000000000        0.0000000000       26.0690000000
 Au         0.0000000000        4.1460000000       26.0690000000
 Au         2.0730000000        2.0730000000       26.0690000000
 Au         2.0730000000        6.2190000000       26.0690000000
 Au         4.1460000000        0.0000000000       26.0690000000
 Au         4.1460000000        4.1460000000       26.0690000000
 Au         6.2190000000        2.0730000000       26.0690000000
 Au         6.2190000000        6.2190000000       26.0690000000
 Au         0.0000000000        2.0730000000       28.1420000000
 Au         0.0000000000        6.2190000000       28.1420000000
 Au         2.0730000000        0.0000000000       28.1420000000
 Au         2.0730000000        4.1460000000       28.1420000000
 Au         4.1460000000        2.0730000000       28.1420000000
 Au         4.1460000000        6.2190000000       28.1420000000
 Au         6.2190000000        0.0000000000       28.1420000000
 Au         6.2190000000        4.1460000000       28.1420000000
 Au         0.0000000000        0.0000000000       30.2150000000
 Au         0.0000000000        4.1460000000       30.2150000000
 Au         2.0730000000        2.0730000000       30.2150000000
 Au         2.0730000000        6.2190000000       30.2150000000
 Au         4.1460000000        0.0000000000       30.2150000000
 Au         4.1460000000        4.1460000000       30.2150000000
 Au         6.2190000000        2.0730000000       30.2150000000
 Au         6.2190000000        6.2190000000       30.2150000000
 Au         0.0000000000        2.0730000000       32.2880000000
 Au         0.0000000000        6.2190000000       32.2880000000
 Au         2.0730000000        0.0000000000       32.2880000000
 Au         2.0730000000        4.1460000000       32.2880000000
 Au         4.1460000000        2.0730000000       32.2880000000
 Au         4.1460000000        6.2190000000       32.2880000000
 Au         6.2190000000        0.0000000000       32.2880000000
 Au         6.2190000000        4.1460000000       32.2880000000
     116
 i =        4, E =     -3518.0890260319
 Au         0.0000000000        0.0000000000        0.0000000000
 Au         0.0000000000        4.1460000000        0.0000000000
 Au         2.0730000000        2.0730000000        0.0000000000
 Au         2.0730000000        6.2190000000        0.0000000000
 Au         4.1460000000        0.0000000000        0.0000000000
 Au         4.1460000000        4.1460000000        0.0000000000
 Au         6.2190000000        2.0730000000        0.0000000000
 Au         6.2190000000        6.2190000000        0.0000000000
 Au         0.0000000000        2.0730000000        2.0730000000
 Au         0.0000000000        6.2190000000        2.0730000000
 Au         2.0730000000        0.0000000000        2.0730000000
 Au         2.0730000000        4.1460000000        2.0730000000
 Au         4.1460000000        2.0730000000        2.0730000000
 Au         4.1460000000        6.2190000000        2.0730000000
 Au         6.2190000000        0.0000000000        2.0730000000
 Au         6.2190000000        4.1460000000        2.0730000000
 Au         0.0000000000        0.0000000000        4.1460000000
 Au         0.0000000000        4.1460000000        4.1460000000
 Au         2.0730000000        2.0730000000        4.1460000000
 Au         2.0730000000        6.2190000000        4.1460000000
 Au         4.1460000000        0.0000000000        4.1460000000
 Au         4.1460000000        4.1460000000        4.1460000000
 Au         6.2190000000        2.0730000000        4.1460000000
 Au         6.2190000000        6.2190000000        4.1460000000
 Au         0.0000000000        2.0730000000        6.2190000000
 Au         0.0000000000        6.2190000000        6.2190000000
 Au         2.0730000000        0.0000000000        6.2190000000
 Au         2.0730000000        4.1460000000        6.2190000000
 Au         4.1460000000        2.0730000000        6.2190000000
 Au         4.1460000000        6.2190000000        6.2190000000
 Au         6.2190000000        0.0000000000        6.2190000000
 Au         6.2190000000        4.1460000000        6.2190000000
 Au         0.0000000000        0.0000000000        8.2920000000
 Au         0.0000000000        4.1460000000        8.2920000000
 Au         2.0730000000        2.0730000000        8.2920000000
 Au         2.0730000000        6.2190000000        8.2920000000
 Au         4.1460000000        0.0000000000        8.2920000000
 Au         4.1460000000        4.1460000000        8.2920000000
 Au         6.2190000000        2.0730000000        8.2920000000
 Au         6.2190000000        6.2190000000        8.2920000000
 Au         0.0000441664        2.0730282675       10.3653385576
 Au         0.0000002982        6.2189471081       10.3593503994
 Au         2.0746898529        0.0043146807       10.3564516393
 Au         2.0746813036        4.1417578525       10.3563220466
 Au         4.1460284986        2.0728546728       10.3286616717
 Au         4.1459875913        6.2185771765       10.3582993615
 Au         6.2172989285        0.0043245262       10.3564826511
 Au         6.2173087026        4.1417486076       10.3563517698
 Au         0.0000201554       -0.0275148991       12.4472624427
 Au         0.0000214583        4.1736710541       12.4473663370
 Au         1.9660948453        2.0728487945       12.4555540214
 Au         2.0424162887        6.2190801650       12.4466775214
 Au         4.1459870977       -0.1170731615       12.4349939934
 Au         4.1459879850        4.2627414934       12.4352684867
 Au         6.3261665096        2.0728501968       12.4554829908
 Au         6.2495525795        6.2190813260       12.4466608788
  S         4.1455613604        2.0796342075       13.9769495044
  C         4.1472721489        2.0824078332       15.7891352516
  H         1.9739573895        2.0928459048       15.9246273066
  H         6.3063988982        2.0926813047       15.9370564460
  C         2.9111536394        2.0842287453       16.4753595190
  C         5.3786869325        2.0844044063       16.4722074164
  C         2.9030028292        2.0601188073       17.8873363457
  C         5.3699527263        2.0603267806       17.8851174601
  H         1.9762717132        2.0513802320       18.4238500618
  H         6.3090776189        2.0511455925       18.4370224669
  C         4.1339108154        2.0623381180       18.5730234524
  S         4.1410032605        2.0659736222       20.3807429039
 Au        -0.0005534446       -0.0257118409       21.9128849281
 Au        -0.0005585525        4.1715233826       21.9129985063
 Au         1.9606391386        2.0732374133       21.9030184520
 Au         2.0443173049        6.2188825936       21.9129648035
 Au         4.1454287728       -0.1206997895       21.9224936891
 Au         4.1454322379        4.2669439067       21.9227547055
 Au         6.3308317326        2.0732368843       21.9029020796
 Au         6.2190000000        6.2190000000       21.9230000000
 Au         0.0000000000        2.0730000000       23.9960000000
 Au         0.0000000000        6.2190000000       23.9960000000
 Au         2.0730000000        0.0000000000       23.9960000000
 Au         2.0730000000        4.1460000000       23.9960000000
 Au         4.1460000000        2.0730000000       23.9960000000
 Au         4.1460000000        6.2190000000       23.9960000000
 Au         6.2190000000        0.0000000000       23.9960000000
 Au         6.2190000000        4.1460000000       23.9960000000
 Au         0.0000000000        0.0000000000       26.0690000000
 Au         0.0000000000        4.1460000000       26.0690000000
 Au         2.0730000000        2.0730000000       26.0690000000
 Au         2.0730000000        6.2190000000       26.0690000000
 Au         4.1460000000        0.0000000000       26.0690000000
 Au         4.1460000000        4.1460000000       26.0690000000
 Au         6.2190000000        2.0730000000       26.0690000000
 Au         6.2190000000        6.2190000000       26.0690000000
 Au         0.0000000000        2.0730000000       28.1420000000
 Au         0.0000000000        6.2190000000       28.1420000000
 Au         2.0730000000        0.0000000000       28.1420000000
 Au         2.0730000000        4.1460000000       28.1420000000
 Au         4.1460000000        2.0730000000       28.1420000000
 Au         4.1460000000        6.2190000000       28.1420000000
 Au         6.2190000000        0.0000000000       28.1420000000
 Au         6.2190000000        4.1460000000       28.1420000000
 Au         0.0000000000        0.0000000000       30.2150000000
 Au         0.0000000000        4.1460000000       30.2150000000
 Au         2.0730000000        2.0730000000       30.2150000000
 Au         2.0730000000        6.2190000000       30.2150000000
 Au         4.1460000000        0.0000000000       30.2150000000
 Au         4.1460000000        4.1460000000       30.2150000000
 Au         6.2190000000        2.0730000000       30.2150000000
 Au         6.2190000000        6.2190000000       30.2150000000
 Au         0.0000000000        2.0730000000       32.2880000000
 Au         0.0000000000        6.2190000000       32.2880000000
 Au         2.0730000000        0.0000000000       32.2880000000
 Au         2.0730000000        4.1460000000       32.2880000000
 Au         4.1460000000        2.0730000000       32.2880000000
 Au         4.1460000000        6.2190000000       32.2880000000
 Au         6.2190000000        0.0000000000       32.2880000000
 Au         6.2190000000        4.1460000000       32.2880000000
