     183
 i =     144, E =    -5729.7357290400
 Au         0.0004634312        0.0009346070        0.0007426270
 Au         0.0005741660        2.9559345830        0.0003832072
 Au         0.0006849383        5.9119345589        0.0000236658
 Au         2.9564634268        0.0008238206        0.0006271886
 Au         2.9565741617        2.9558237966        0.0002677689
 Au         2.9566849340        5.9118237726       -0.0000917725
 Au         5.9124634225        0.0007130342        0.0005117503
 Au         5.9125741573        2.9557130102        0.0001523306
 Au         5.9126849296        5.9117129862       -0.0002072108
 Au         8.6704634184        0.0006096686        0.0004040443
 Au         8.6705741533        2.9556096445        0.0000446246
 Au         8.6706849256        5.9116096205       -0.0003149168
 Au        11.6264634141        0.0004988822        0.0002886060
 Au        11.6265741489        2.9554988582       -0.0000708137
 Au        11.6266849212        5.9114988342       -0.0004303551
 Au         1.4786004438        1.4791334076        2.0905051200
 Au         1.4787111787        4.4341333836        2.0901457002
 Au         1.4788219510        7.3901333596        2.0897861589
 Au         4.4346004395        1.4790226212        2.0903896817
 Au         4.4347111743        4.4340225972        2.0900302619
 Au         4.4348219466        7.3900225732        2.0896707205
 Au         7.1926004354        1.4789192556        2.0902819757
 Au         7.1927111703        4.4339192316        2.0899225559
 Au         7.1928219426        7.3899192076        2.0895630145
 Au        10.1486004311        1.4788084692        2.0901665374
 Au        10.1487111659        4.4338084452        2.0898071176
 Au        10.1488219382        7.3898084212        2.0894475762
 Au        13.1046004267        1.4786976828        2.0900510991
 Au        13.1047111616        4.4336976588        2.0896916793
 Au        13.1048219339        7.3896976348        2.0893321379
 Au         0.0006266885        0.0014430186        4.1807425928
 Au         0.0007374233        2.9564429946        4.1803831730
 Au         0.0008481956        5.9124429706        4.1800236316
 Au         2.9566266842        0.0013322322        4.1806271544
 Au         2.9567374190        2.9563322082        4.1802677347
 Au         2.9568481913        5.9123321842        4.1799081933
 Au         5.9126266798        0.0012214459        4.1805117161
 Au         5.9127374147        2.9562214219        4.1801522964
 Au         5.9128481870        5.9122213978        4.1797927550
 Au         8.6706266758        0.0011180802        4.1804040101
 Au         8.6707374106        2.9561180562        4.1800445904
 Au         8.6708481829        5.9121180322        4.1796850490
 Au        11.6266266714        0.0010072938        4.1802885718
 Au        11.6267374063        2.9560072698        4.1799291520
 Au        11.6268481786        5.9120072458        4.1795696107
 Au         1.4787637012        1.4796418193        6.2705050858
 Au         1.4788744360        4.4346417953        6.2701456660
 Au         1.4789852083        7.3906417712        6.2697861246
 Au         4.4347636968        1.4795310329        6.2703896475
 Au         4.4348744317        4.4345310089        6.2700302277
 Au         4.4349852040        7.3905309849        6.2696706863
 Au         7.1927636928        1.4794276672        6.2702819415
 Au         7.1928744276        4.4344276432        6.2699225217
 Au         7.1929851999        7.3904276192        6.2695629803
 Au        10.1487636884        1.4793168809        6.2701665032
 Au        10.1488744233        4.4343168568        6.2698070834
 Au        10.1489851956        7.3903168328        6.2694475420
 Au        13.1047636841        1.4792060945        6.2700510648
 Au        13.1048744189        4.4342060705        6.2696916451
 Au        13.1049851912        7.3902060465        6.2693321037
 Au         0.0007899459        0.0019514303        8.3607425586
 Au         0.0009006807        2.9569514063        8.3603831388
 Au         0.0010114530        5.9129513823        8.3600235974
 Au         2.9567899415        0.0018406439        8.3606271202
 Au         2.9569006763        2.9568406199        8.3602677005
 Au         2.9570114486        5.9128405959        8.3599081591
 Au         5.9127899372        0.0017298575        8.3605116819
 Au         5.9129006720        2.9567298335        8.3601522622
 Au         5.9130114443        5.9127298095        8.3597927208
 Au         8.6707899331        0.0016264919        8.3604039759
 Au         8.6709006679        2.9566264679        8.3600445562
 Au         8.6710114402        5.9126264439        8.3596850148
 Au        11.6267899288        0.0015157055        8.3602885376
 Au        11.6269006636        2.9565156815        8.3599291178
 Au        11.6270114359        5.9125156575        8.3595695764
 Au         1.4789269585        1.4801502309       10.4505050516
 Au         1.4790376933        4.4351502069       10.4501456318
 Au         1.4791484656        7.3911501829       10.4497860904
 Au         4.4349269542        1.4800394445       10.4503896133
 Au         4.4350376890        4.4350394205       10.4500301935
 Au         4.4351484613        7.3910393965       10.4496706521
 Au         7.1929269501        1.4799360789       10.4502819073
 Au         7.1930376849        4.4349360549       10.4499224875
 Au         7.1931484572        7.3909360309       10.4495629461
 Au        10.1489269458        1.4798252925       10.4501664690
 Au        10.1490376806        4.4348252685       10.4498070492
 Au        10.1491484529        7.3908252445       10.4494475078
 Au        13.1049269414        1.4797145061       10.4500510306
 Au        13.1050376762        4.4347144821       10.4496916109
 Au        13.1051484485        7.3907144581       10.4493320695
  N         4.8561559988        5.9132186052       12.0318334007
  N         9.5291550085        5.9150431433       12.0336512347
  N         7.1931560333        5.9361294337       12.0397399063
  H        10.3192039921        5.9186473854       12.6861384964
  H         4.0713341608        5.9181063933       12.6921172446
  C         8.3736987539        5.9380436469       12.7311058576
  C         6.0024414223        5.9411968913       12.7922602893
  N         8.3121584489        5.9749504168       14.0790983303
  N         5.9249656673        5.9849385218       14.1023544864
  H         9.1657582438        5.9675007710       14.6358724652
  C         7.0733161052        6.0386527546       14.8670826386
  N         7.1518373506        6.0382906834       16.1169510341
  H         7.2602555837        6.5828408385       16.9507807320
 Au         7.1938486057        5.9372244660       21.0427398328
 Au         5.9133496458        7.1961970532       22.9916367922
 Au         8.6719338622        4.4374061412       22.9918645443
 Au         5.9132462579        4.4365095047       22.9919723716
 Au         8.6720372126        7.1960936897       22.9915290865
 Au         1.4794984373        1.4819299150       25.0825049319
 Au         1.4796091721        4.4369298910       25.0821455121
 Au         1.4797199444        7.3929298670       25.0817859707
 Au         4.4354984330        1.4818191286       25.0823894935
 Au         4.4356091678        4.4368191046       25.0820300738
 Au         4.4357199401        7.3928190806       25.0816705324
 Au         7.1934984289        1.4817157630       25.0822817876
 Au         7.1936091637        4.4367157390       25.0819223678
 Au         7.1937199360        7.3927157150       25.0815628264
 Au        10.1494984246        1.4816049766       25.0821663492
 Au        10.1496091594        4.4366049526       25.0818069295
 Au        10.1497199317        7.3926049286       25.0814473881
 Au        13.1054984202        1.4814941902       25.0820509109
 Au        13.1056091550        4.4364941662       25.0816914911
 Au        13.1057199273        7.3924941422       25.0813319497
 Au         0.0015246820        0.0042395260       27.1727424046
 Au         0.0016354168        2.9592395020       27.1723829849
 Au         0.0017461891        5.9152394780       27.1720234435
 Au         2.9575246776        0.0041287397       27.1726269663
 Au         2.9576354125        2.9591287157       27.1722675465
 Au         2.9577461848        5.9151286916       27.1719080051
 Au         5.9135246733        0.0040179533       27.1725115280
 Au         5.9136354081        2.9590179293       27.1721521082
 Au         5.9137461804        5.9150179053       27.1717925668
 Au         8.6715246693        0.0039145876       27.1724038220
 Au         8.6716354041        2.9589145636       27.1720444022
 Au         8.6717461764        5.9149145396       27.1716848608
 Au        11.6275246649        0.0038038013       27.1722883837
 Au        11.6276353997        2.9588037773       27.1719289639
 Au        11.6277461720        5.9148037532       27.1715694225
 Au         1.4796616946        1.4824383267       29.2625048977
 Au         1.4797724295        4.4374383027       29.2621454779
 Au         1.4798832018        7.3934382787       29.2617859365
 Au         4.4356616903        1.4823275403       29.2623894593
 Au         4.4357724251        4.4373275163       29.2620300396
 Au         4.4358831974        7.3933274923       29.2616704982
 Au         7.1936616862        1.4822241747       29.2622817533
 Au         7.1937724211        4.4372241507       29.2619223336
 Au         7.1938831934        7.3932241266       29.2615627922
 Au        10.1496616819        1.4821133883       29.2621663150
 Au        10.1497724167        4.4371133643       29.2618068953
 Au        10.1498831890        7.3931133403       29.2614473539
 Au        13.1056616776        1.4820026019       29.2620508767
 Au        13.1057724124        4.4370025779       29.2616914569
 Au        13.1058831847        7.3930025539       29.2613319155
 Au         0.0016879393        0.0047479377       31.3527423704
 Au         0.0017986742        2.9597479137       31.3523829506
 Au         0.0019094465        5.9157478897       31.3520234093
 Au         2.9576879350        0.0046371513       31.3526269321
 Au         2.9577986698        2.9596371273       31.3522675123
 Au         2.9579094421        5.9156371033       31.3519079709
 Au         5.9136879306        0.0045263649       31.3525114938
 Au         5.9137986655        2.9595263409       31.3521520740
 Au         5.9139094378        5.9155263169       31.3517925326
 Au         8.6716879266        0.0044229993       31.3524037878
 Au         8.6717986614        2.9594229753       31.3520443680
 Au         8.6719094337        5.9154229513       31.3516848266
 Au        11.6276879222        0.0043122129       31.3522883495
 Au        11.6277986571        2.9593121889       31.3519289297
 Au        11.6279094294        5.9153121649       31.3515693883
 Au         1.4798249520        1.4829467383       33.4425048635
 Au         1.4799356868        4.4379467143       33.4421454437
 Au         1.4800464591        7.3939466903       33.4417859023
 Au         4.4358249476        1.4828359520       33.4423894251
 Au         4.4359356825        4.4378359280       33.4420300054
 Au         4.4360464548        7.3938359040       33.4416704640
 Au         7.1938249436        1.4827325863       33.4422817191
 Au         7.1939356784        4.4377325623       33.4419222994
 Au         7.1940464507        7.3937325383       33.4415627580
 Au        10.1498249392        1.4826217999       33.4421662808
 Au        10.1499356741        4.4376217759       33.4418068611
 Au        10.1500464464        7.3936217519       33.4414473197
 Au        13.1058249349        1.4825110136       33.4420508425
 Au        13.1059356697        4.4375109896       33.4416914227
 Au        13.1060464420        7.3935109655       33.4413318813
