     116
 i =        1, E =     -3518.3082229057
 Au         0.0000000000        0.0000000000        0.0000000000
 Au         0.0000000000        4.1460000000        0.0000000000
 Au         2.0730000000        2.0730000000        0.0000000000
 Au         2.0730000000        6.2190000000        0.0000000000
 Au         4.1460000000        0.0000000000        0.0000000000
 Au         4.1460000000        4.1460000000        0.0000000000
 Au         6.2190000000        2.0730000000        0.0000000000
 Au         6.2190000000        6.2190000000        0.0000000000
 Au         0.0000000000        2.0730000000        2.0730000000
 Au         0.0000000000        6.2190000000        2.0730000000
 Au         2.0730000000        0.0000000000        2.0730000000
 Au         2.0730000000        4.1460000000        2.0730000000
 Au         4.1460000000        2.0730000000        2.0730000000
 Au         4.1460000000        6.2190000000        2.0730000000
 Au         6.2190000000        0.0000000000        2.0730000000
 Au         6.2190000000        4.1460000000        2.0730000000
 Au         0.0000000000        0.0000000000        4.1460000000
 Au         0.0000000000        4.1460000000        4.1460000000
 Au         2.0730000000        2.0730000000        4.1460000000
 Au         2.0730000000        6.2190000000        4.1460000000
 Au         4.1460000000        0.0000000000        4.1460000000
 Au         4.1460000000        4.1460000000        4.1460000000
 Au         6.2190000000        2.0730000000        4.1460000000
 Au         6.2190000000        6.2190000000        4.1460000000
 Au         0.0000000000        2.0730000000        6.2190000000
 Au         0.0000000000        6.2190000000        6.2190000000
 Au         2.0730000000        0.0000000000        6.2190000000
 Au         2.0730000000        4.1460000000        6.2190000000
 Au         4.1460000000        2.0730000000        6.2190000000
 Au         4.1460000000        6.2190000000        6.2190000000
 Au         6.2190000000        0.0000000000        6.2190000000
 Au         6.2190000000        4.1460000000        6.2190000000
 Au         0.0000000000        0.0000000000        8.2920000000
 Au         0.0000000000        4.1460000000        8.2920000000
 Au         2.0730000000        2.0730000000        8.2920000000
 Au         2.0730000000        6.2190000000        8.2920000000
 Au         4.1460000000        0.0000000000        8.2920000000
 Au         4.1460000000        4.1460000000        8.2920000000
 Au         6.2190000000        2.0730000000        8.2920000000
 Au         6.2190000000        6.2190000000        8.2920000000
 Au        -0.0000039229        2.0729980305       10.3687054695
 Au        -0.0000026436        6.2189936513       10.3643967939
 Au         2.0725740257       -0.0003109250       10.3636204751
 Au         2.0725690160        4.1463187450       10.3636071924
 Au         4.1459993322        2.0729898372       10.3494897479
 Au         4.1459980111        6.2189939446       10.3684387188
 Au         6.2194265007       -0.0003105231       10.3636138305
 Au         6.2194315935        4.1463183752       10.3636004148
 Au         0.0000058561       -0.0001889362       12.4378169273
 Au         0.0000059533        4.1461995840       12.4378361442
 Au         2.0471441174        2.0730182134       12.4346789696
 Au         2.0725930233        6.2189957881       12.4376481911
 Au         4.1459964436       -0.0263929890       12.4333602774
 Au         4.1459966384        4.1722933088       12.4333784827
 Au         6.2448062497        2.0730185494       12.4346929616
 Au         6.2194096330        6.2189959234       12.4376493222
  S         4.1461518435        2.0733949951       13.6794978246
  C         4.1447455464        2.0785246395       15.4175574054
  H         2.0183564649        2.1028891349       15.5758574724
  H         6.2730678065        2.1028851725       15.5821356401
  C         2.9687300127        2.0811505680       16.1431010452
  C         5.3214591966        2.0811679573       16.1456182981
  C         2.9594426848        2.0628448935       17.4960601383
  C         5.3121498820        2.0628678942       17.4978462583
  H         2.0081629823        2.0411258866       18.0596739952
  H         6.2626505000        2.0411152797       18.0651243136
  C         4.1367394560        2.0655538498       18.2238360997
  S         4.1452214361        2.0725547131       19.9617505567
 Au        -0.0000071437       -0.0002009552       21.2041615413
 Au        -0.0000071419        4.1461890966       21.2041832230
 Au         2.0473071232        2.0729851714       21.2072816321
 Au         2.0725837250        6.2189997457       21.2043460980
 Au         4.1460038875       -0.0262382664       21.2086091237
 Au         4.1460040539        4.1723572768       21.2086294674
 Au         6.2448798994        2.0729854416       21.2073220123
 Au         6.2190000000        6.2190000000       21.2040000000
 Au         0.0000000000        2.0730000000       23.2770000000
 Au         0.0000000000        6.2190000000       23.2770000000
 Au         2.0730000000        0.0000000000       23.2770000000
 Au         2.0730000000        4.1460000000       23.2770000000
 Au         4.1460000000        2.0730000000       23.2770000000
 Au         4.1460000000        6.2190000000       23.2770000000
 Au         6.2190000000        0.0000000000       23.2770000000
 Au         6.2190000000        4.1460000000       23.2770000000
 Au         0.0000000000        0.0000000000       25.3500000000
 Au         0.0000000000        4.1460000000       25.3500000000
 Au         2.0730000000        2.0730000000       25.3500000000
 Au         2.0730000000        6.2190000000       25.3500000000
 Au         4.1460000000        0.0000000000       25.3500000000
 Au         4.1460000000        4.1460000000       25.3500000000
 Au         6.2190000000        2.0730000000       25.3500000000
 Au         6.2190000000        6.2190000000       25.3500000000
 Au         0.0000000000        2.0730000000       27.4230000000
 Au         0.0000000000        6.2190000000       27.4230000000
 Au         2.0730000000        0.0000000000       27.4230000000
 Au         2.0730000000        4.1460000000       27.4230000000
 Au         4.1460000000        2.0730000000       27.4230000000
 Au         4.1460000000        6.2190000000       27.4230000000
 Au         6.2190000000        0.0000000000       27.4230000000
 Au         6.2190000000        4.1460000000       27.4230000000
 Au         0.0000000000        0.0000000000       29.4960000000
 Au         0.0000000000        4.1460000000       29.4960000000
 Au         2.0730000000        2.0730000000       29.4960000000
 Au         2.0730000000        6.2190000000       29.4960000000
 Au         4.1460000000        0.0000000000       29.4960000000
 Au         4.1460000000        4.1460000000       29.4960000000
 Au         6.2190000000        2.0730000000       29.4960000000
 Au         6.2190000000        6.2190000000       29.4960000000
 Au         0.0000000000        2.0730000000       31.5690000000
 Au         0.0000000000        6.2190000000       31.5690000000
 Au         2.0730000000        0.0000000000       31.5690000000
 Au         2.0730000000        4.1460000000       31.5690000000
 Au         4.1460000000        2.0730000000       31.5690000000
 Au         4.1460000000        6.2190000000       31.5690000000
 Au         6.2190000000        0.0000000000       31.5690000000
 Au         6.2190000000        4.1460000000       31.5690000000
     116
 i =        2, E =     -3518.3312406097
 Au         0.0000000000        0.0000000000        0.0000000000
 Au         0.0000000000        4.1460000000        0.0000000000
 Au         2.0730000000        2.0730000000        0.0000000000
 Au         2.0730000000        6.2190000000        0.0000000000
 Au         4.1460000000        0.0000000000        0.0000000000
 Au         4.1460000000        4.1460000000        0.0000000000
 Au         6.2190000000        2.0730000000        0.0000000000
 Au         6.2190000000        6.2190000000        0.0000000000
 Au         0.0000000000        2.0730000000        2.0730000000
 Au         0.0000000000        6.2190000000        2.0730000000
 Au         2.0730000000        0.0000000000        2.0730000000
 Au         2.0730000000        4.1460000000        2.0730000000
 Au         4.1460000000        2.0730000000        2.0730000000
 Au         4.1460000000        6.2190000000        2.0730000000
 Au         6.2190000000        0.0000000000        2.0730000000
 Au         6.2190000000        4.1460000000        2.0730000000
 Au         0.0000000000        0.0000000000        4.1460000000
 Au         0.0000000000        4.1460000000        4.1460000000
 Au         2.0730000000        2.0730000000        4.1460000000
 Au         2.0730000000        6.2190000000        4.1460000000
 Au         4.1460000000        0.0000000000        4.1460000000
 Au         4.1460000000        4.1460000000        4.1460000000
 Au         6.2190000000        2.0730000000        4.1460000000
 Au         6.2190000000        6.2190000000        4.1460000000
 Au         0.0000000000        2.0730000000        6.2190000000
 Au         0.0000000000        6.2190000000        6.2190000000
 Au         2.0730000000        0.0000000000        6.2190000000
 Au         2.0730000000        4.1460000000        6.2190000000
 Au         4.1460000000        2.0730000000        6.2190000000
 Au         4.1460000000        6.2190000000        6.2190000000
 Au         6.2190000000        0.0000000000        6.2190000000
 Au         6.2190000000        4.1460000000        6.2190000000
 Au         0.0000000000        0.0000000000        8.2920000000
 Au         0.0000000000        4.1460000000        8.2920000000
 Au         2.0730000000        2.0730000000        8.2920000000
 Au         2.0730000000        6.2190000000        8.2920000000
 Au         4.1460000000        0.0000000000        8.2920000000
 Au         4.1460000000        4.1460000000        8.2920000000
 Au         6.2190000000        2.0730000000        8.2920000000
 Au         6.2190000000        6.2190000000        8.2920000000
 Au        -0.0000058117        2.0729916967       10.3771531010
 Au        -0.0000043734        6.2189739934       10.3628607462
 Au         2.0715764452       -0.0008657599       10.3595156801
 Au         2.0715589116        4.1468996274       10.3594567294
 Au         4.1460060863        2.0729511131       10.3108988494
 Au         4.1459921409        6.2189556201       10.3758419278
 Au         6.2204198605       -0.0008606240       10.3595071814
 Au         6.2204377474        4.1468946408       10.3594478048
 Au         0.0000144555       -0.0029734886       12.4380267636
 Au         0.0000148311        4.1490203250       12.4381100993
 Au         1.9801998469        2.0730533486       12.4275380884
 Au         2.0690929859        6.2189902971       12.4373626531
 Au         4.1459785043       -0.0950940053       12.4215336262
 Au         4.1459790147        4.2407555020       12.4215926734
 Au         6.3117882012        2.0730540800       12.4275334873
 Au         6.2229087462        6.2189907019       12.4373615259
  S         4.1461236805        2.0746530034       13.7561702661
  C         4.1432565545        2.0823332768       15.4446356442
  H         2.0031478947        2.1007494126       15.5715204417
  H         6.2893470846        2.1007485221       15.5784343225
  C         2.9506146632        2.0792160206       16.1199367518
  C         5.3345698393        2.0792380656       16.1238096082
  C         2.9468423063        2.0648121683       17.5179174458
  C         5.3306241242        2.0648067888       17.5214887487
  H         1.9918928869        2.0432769179       18.0633061406
  H         6.2777798847        2.0432705604       18.0693483081
  C         4.1386595862        2.0619576379       18.1960990767
  S         4.1435452477        2.0711593292       19.8845133417
 Au        -0.0000368440       -0.0027589780       21.2039120173
 Au        -0.0000368342        4.1487056228       21.2040052659
 Au         1.9795710074        2.0729655129       21.2139118187
 Au         2.0693198930        6.2189915830       21.2046266920
 Au         4.1460530795       -0.0955375360       21.2198671998
 Au         4.1460534781        4.2419235770       21.2199343411
 Au         6.3128323763        2.0729658988       21.2139749125
 Au         6.2190000000        6.2190000000       21.2040000000
 Au         0.0000000000        2.0730000000       23.2770000000
 Au         0.0000000000        6.2190000000       23.2770000000
 Au         2.0730000000        0.0000000000       23.2770000000
 Au         2.0730000000        4.1460000000       23.2770000000
 Au         4.1460000000        2.0730000000       23.2770000000
 Au         4.1460000000        6.2190000000       23.2770000000
 Au         6.2190000000        0.0000000000       23.2770000000
 Au         6.2190000000        4.1460000000       23.2770000000
 Au         0.0000000000        0.0000000000       25.3500000000
 Au         0.0000000000        4.1460000000       25.3500000000
 Au         2.0730000000        2.0730000000       25.3500000000
 Au         2.0730000000        6.2190000000       25.3500000000
 Au         4.1460000000        0.0000000000       25.3500000000
 Au         4.1460000000        4.1460000000       25.3500000000
 Au         6.2190000000        2.0730000000       25.3500000000
 Au         6.2190000000        6.2190000000       25.3500000000
 Au         0.0000000000        2.0730000000       27.4230000000
 Au         0.0000000000        6.2190000000       27.4230000000
 Au         2.0730000000        0.0000000000       27.4230000000
 Au         2.0730000000        4.1460000000       27.4230000000
 Au         4.1460000000        2.0730000000       27.4230000000
 Au         4.1460000000        6.2190000000       27.4230000000
 Au         6.2190000000        0.0000000000       27.4230000000
 Au         6.2190000000        4.1460000000       27.4230000000
 Au         0.0000000000        0.0000000000       29.4960000000
 Au         0.0000000000        4.1460000000       29.4960000000
 Au         2.0730000000        2.0730000000       29.4960000000
 Au         2.0730000000        6.2190000000       29.4960000000
 Au         4.1460000000        0.0000000000       29.4960000000
 Au         4.1460000000        4.1460000000       29.4960000000
 Au         6.2190000000        2.0730000000       29.4960000000
 Au         6.2190000000        6.2190000000       29.4960000000
 Au         0.0000000000        2.0730000000       31.5690000000
 Au         0.0000000000        6.2190000000       31.5690000000
 Au         2.0730000000        0.0000000000       31.5690000000
 Au         2.0730000000        4.1460000000       31.5690000000
 Au         4.1460000000        2.0730000000       31.5690000000
 Au         4.1460000000        6.2190000000       31.5690000000
 Au         6.2190000000        0.0000000000       31.5690000000
 Au         6.2190000000        4.1460000000       31.5690000000
     116
 i =        3, E =     -3518.3372073047
 Au         0.0000000000        0.0000000000        0.0000000000
 Au         0.0000000000        4.1460000000        0.0000000000
 Au         2.0730000000        2.0730000000        0.0000000000
 Au         2.0730000000        6.2190000000        0.0000000000
 Au         4.1460000000        0.0000000000        0.0000000000
 Au         4.1460000000        4.1460000000        0.0000000000
 Au         6.2190000000        2.0730000000        0.0000000000
 Au         6.2190000000        6.2190000000        0.0000000000
 Au         0.0000000000        2.0730000000        2.0730000000
 Au         0.0000000000        6.2190000000        2.0730000000
 Au         2.0730000000        0.0000000000        2.0730000000
 Au         2.0730000000        4.1460000000        2.0730000000
 Au         4.1460000000        2.0730000000        2.0730000000
 Au         4.1460000000        6.2190000000        2.0730000000
 Au         6.2190000000        0.0000000000        2.0730000000
 Au         6.2190000000        4.1460000000        2.0730000000
 Au         0.0000000000        0.0000000000        4.1460000000
 Au         0.0000000000        4.1460000000        4.1460000000
 Au         2.0730000000        2.0730000000        4.1460000000
 Au         2.0730000000        6.2190000000        4.1460000000
 Au         4.1460000000        0.0000000000        4.1460000000
 Au         4.1460000000        4.1460000000        4.1460000000
 Au         6.2190000000        2.0730000000        4.1460000000
 Au         6.2190000000        6.2190000000        4.1460000000
 Au         0.0000000000        2.0730000000        6.2190000000
 Au         0.0000000000        6.2190000000        6.2190000000
 Au         2.0730000000        0.0000000000        6.2190000000
 Au         2.0730000000        4.1460000000        6.2190000000
 Au         4.1460000000        2.0730000000        6.2190000000
 Au         4.1460000000        6.2190000000        6.2190000000
 Au         6.2190000000        0.0000000000        6.2190000000
 Au         6.2190000000        4.1460000000        6.2190000000
 Au         0.0000000000        0.0000000000        8.2920000000
 Au         0.0000000000        4.1460000000        8.2920000000
 Au         2.0730000000        2.0730000000        8.2920000000
 Au         2.0730000000        6.2190000000        8.2920000000
 Au         4.1460000000        0.0000000000        8.2920000000
 Au         4.1460000000        4.1460000000        8.2920000000
 Au         6.2190000000        2.0730000000        8.2920000000
 Au         6.2190000000        6.2190000000        8.2920000000
 Au        -0.0000007683        2.0729884249       10.3764722071
 Au        -0.0000058731        6.2189618870       10.3624302722
 Au         2.0715404244       -0.0005181244       10.3574691888
 Au         2.0715166488        4.1465677890       10.3573765870
 Au         4.1460137331        2.0729207835       10.2995603726
 Au         4.1459906053        6.2188982742       10.3740883388
 Au         6.2204517986       -0.0005115768       10.3574661842
 Au         6.2204761885        4.1465615345       10.3573729521
 Au         0.0000198748       -0.0087132247       12.4393043135
 Au         0.0000203842        4.1547928512       12.4394244737
 Au         1.9565025291        2.0730476342       12.4274554171
 Au         2.0628020023        6.2189971329       12.4383846516
 Au         4.1459702275       -0.1199085170       12.4184980268
 Au         4.1459707841        4.2654653195       12.4185921684
 Au         6.3355463142        2.0730485473       12.4274392139
 Au         6.2291944858        6.2189976611       12.4383754638
  S         4.1460710214        2.0754938559       13.7541853582
  C         4.1436578261        2.0837049549       15.4588724777
  H         2.0013146792        2.0991936166       15.5704908846
  H         6.2887500576        2.0991466147       15.5788948992
  C         2.9248986621        2.0790140305       16.1393682014
  C         5.3604072052        2.0790746859       16.1419938949
  C         2.9211162084        2.0650109474       17.4994992768
  C         5.3567190827        2.0650443723       17.5013984710
  H         1.9926125667        2.0448872533       18.0628266032
  H         6.2798634314        2.0448261470       18.0705200614
  C         4.1379959956        2.0606705720       18.1822646286
  S         4.1427318800        2.0702684384       19.8851539563
 Au        -0.0001118759       -0.0080494795       21.2026264930
 Au        -0.0001119799        4.1539569324       21.2027611336
 Au         1.9542433622        2.0729857860       21.2132615799
 Au         2.0634864702        6.2189772027       21.2035507707
 Au         4.1460409746       -0.1217038941       21.2220496233
 Au         4.1460414315        4.2681896177       21.2221573922
 Au         6.3381350764        2.0729863401       21.2133449269
 Au         6.2190000000        6.2190000000       21.2040000000
 Au         0.0000000000        2.0730000000       23.2770000000
 Au         0.0000000000        6.2190000000       23.2770000000
 Au         2.0730000000        0.0000000000       23.2770000000
 Au         2.0730000000        4.1460000000       23.2770000000
 Au         4.1460000000        2.0730000000       23.2770000000
 Au         4.1460000000        6.2190000000       23.2770000000
 Au         6.2190000000        0.0000000000       23.2770000000
 Au         6.2190000000        4.1460000000       23.2770000000
 Au         0.0000000000        0.0000000000       25.3500000000
 Au         0.0000000000        4.1460000000       25.3500000000
 Au         2.0730000000        2.0730000000       25.3500000000
 Au         2.0730000000        6.2190000000       25.3500000000
 Au         4.1460000000        0.0000000000       25.3500000000
 Au         4.1460000000        4.1460000000       25.3500000000
 Au         6.2190000000        2.0730000000       25.3500000000
 Au         6.2190000000        6.2190000000       25.3500000000
 Au         0.0000000000        2.0730000000       27.4230000000
 Au         0.0000000000        6.2190000000       27.4230000000
 Au         2.0730000000        0.0000000000       27.4230000000
 Au         2.0730000000        4.1460000000       27.4230000000
 Au         4.1460000000        2.0730000000       27.4230000000
 Au         4.1460000000        6.2190000000       27.4230000000
 Au         6.2190000000        0.0000000000       27.4230000000
 Au         6.2190000000        4.1460000000       27.4230000000
 Au         0.0000000000        0.0000000000       29.4960000000
 Au         0.0000000000        4.1460000000       29.4960000000
 Au         2.0730000000        2.0730000000       29.4960000000
 Au         2.0730000000        6.2190000000       29.4960000000
 Au         4.1460000000        0.0000000000       29.4960000000
 Au         4.1460000000        4.1460000000       29.4960000000
 Au         6.2190000000        2.0730000000       29.4960000000
 Au         6.2190000000        6.2190000000       29.4960000000
 Au         0.0000000000        2.0730000000       31.5690000000
 Au         0.0000000000        6.2190000000       31.5690000000
 Au         2.0730000000        0.0000000000       31.5690000000
 Au         2.0730000000        4.1460000000       31.5690000000
 Au         4.1460000000        2.0730000000       31.5690000000
 Au         4.1460000000        6.2190000000       31.5690000000
 Au         6.2190000000        0.0000000000       31.5690000000
 Au         6.2190000000        4.1460000000       31.5690000000
     116
 i =        4, E =     -3518.3394908898
 Au         0.0000000000        0.0000000000        0.0000000000
 Au         0.0000000000        4.1460000000        0.0000000000
 Au         2.0730000000        2.0730000000        0.0000000000
 Au         2.0730000000        6.2190000000        0.0000000000
 Au         4.1460000000        0.0000000000        0.0000000000
 Au         4.1460000000        4.1460000000        0.0000000000
 Au         6.2190000000        2.0730000000        0.0000000000
 Au         6.2190000000        6.2190000000        0.0000000000
 Au         0.0000000000        2.0730000000        2.0730000000
 Au         0.0000000000        6.2190000000        2.0730000000
 Au         2.0730000000        0.0000000000        2.0730000000
 Au         2.0730000000        4.1460000000        2.0730000000
 Au         4.1460000000        2.0730000000        2.0730000000
 Au         4.1460000000        6.2190000000        2.0730000000
 Au         6.2190000000        0.0000000000        2.0730000000
 Au         6.2190000000        4.1460000000        2.0730000000
 Au         0.0000000000        0.0000000000        4.1460000000
 Au         0.0000000000        4.1460000000        4.1460000000
 Au         2.0730000000        2.0730000000        4.1460000000
 Au         2.0730000000        6.2190000000        4.1460000000
 Au         4.1460000000        0.0000000000        4.1460000000
 Au         4.1460000000        4.1460000000        4.1460000000
 Au         6.2190000000        2.0730000000        4.1460000000
 Au         6.2190000000        6.2190000000        4.1460000000
 Au         0.0000000000        2.0730000000        6.2190000000
 Au         0.0000000000        6.2190000000        6.2190000000
 Au         2.0730000000        0.0000000000        6.2190000000
 Au         2.0730000000        4.1460000000        6.2190000000
 Au         4.1460000000        2.0730000000        6.2190000000
 Au         4.1460000000        6.2190000000        6.2190000000
 Au         6.2190000000        0.0000000000        6.2190000000
 Au         6.2190000000        4.1460000000        6.2190000000
 Au         0.0000000000        0.0000000000        8.2920000000
 Au         0.0000000000        4.1460000000        8.2920000000
 Au         2.0730000000        2.0730000000        8.2920000000
 Au         2.0730000000        6.2190000000        8.2920000000
 Au         4.1460000000        0.0000000000        8.2920000000
 Au         4.1460000000        4.1460000000        8.2920000000
 Au         6.2190000000        2.0730000000        8.2920000000
 Au         6.2190000000        6.2190000000        8.2920000000
 Au         0.0000109312        2.0729864138       10.3699018060
 Au        -0.0000090048        6.2189478833       10.3619931736
 Au         2.0721212843        0.0006743378       10.3559249683
 Au         2.0720896616        4.1453871185       10.3557903195
 Au         4.1460238585        2.0728806087       10.2971471650
 Au         4.1459894325        6.2187937693       10.3656189100
 Au         6.2198683955        0.0006804376       10.3559322406
 Au         6.2199010942        4.1453815936       10.3557966588
 Au         0.0000293748       -0.0193770751       12.4418852851
 Au         0.0000301397        4.1655042696       12.4420427869
 Au         1.9431056312        2.0730048462       12.4311409072
 Au         2.0512692642        6.2190179873       12.4406790140
 Au         4.1459636238       -0.1344966400       12.4186582404
 Au         4.1459640736        4.2800214768       12.4187888886
 Au         6.3490146681        2.0730057992       12.4311054845
 Au         6.2407165240        6.2190187364       12.4406551611
  S         4.1459393675        2.0766355857       13.7323197361
  C         4.1435660005        2.0843470508       15.4812185519
  H         1.9946884776        2.0973230021       15.5658879547
  H         6.2931755910        2.0972471752       15.5751996081
  C         2.9207737488        2.0799323932       16.1330986633
  C         5.3655739483        2.0800124316       16.1350422327
  C         2.9159808813        2.0641392380       17.5056829860
  C         5.3607863998        2.0641897369       17.5075412560
  H         1.9884597579        2.0467979287       18.0663757209
  H         6.2868240219        2.0466941667       18.0752385071
  C         4.1382156530        2.0600938145       18.1591484865
  S         4.1419311828        2.0690815150       19.9058159821
 Au        -0.0003673386       -0.0183196387       21.1999141080
 Au        -0.0003681052        4.1641667727       21.2000919606
 Au         1.9384220304        2.0730500582       21.2082293696
 Au         2.0523955613        6.2189486181       21.2009053953
 Au         4.1457705773       -0.1380604876       21.2201925427
 Au         4.1457707880        4.2845578385       21.2203420194
 Au         6.3538230185        2.0730506073       21.2083254013
 Au         6.2190000000        6.2190000000       21.2040000000
 Au         0.0000000000        2.0730000000       23.2770000000
 Au         0.0000000000        6.2190000000       23.2770000000
 Au         2.0730000000        0.0000000000       23.2770000000
 Au         2.0730000000        4.1460000000       23.2770000000
 Au         4.1460000000        2.0730000000       23.2770000000
 Au         4.1460000000        6.2190000000       23.2770000000
 Au         6.2190000000        0.0000000000       23.2770000000
 Au         6.2190000000        4.1460000000       23.2770000000
 Au         0.0000000000        0.0000000000       25.3500000000
 Au         0.0000000000        4.1460000000       25.3500000000
 Au         2.0730000000        2.0730000000       25.3500000000
 Au         2.0730000000        6.2190000000       25.3500000000
 Au         4.1460000000        0.0000000000       25.3500000000
 Au         4.1460000000        4.1460000000       25.3500000000
 Au         6.2190000000        2.0730000000       25.3500000000
 Au         6.2190000000        6.2190000000       25.3500000000
 Au         0.0000000000        2.0730000000       27.4230000000
 Au         0.0000000000        6.2190000000       27.4230000000
 Au         2.0730000000        0.0000000000       27.4230000000
 Au         2.0730000000        4.1460000000       27.4230000000
 Au         4.1460000000        2.0730000000       27.4230000000
 Au         4.1460000000        6.2190000000       27.4230000000
 Au         6.2190000000        0.0000000000       27.4230000000
 Au         6.2190000000        4.1460000000       27.4230000000
 Au         0.0000000000        0.0000000000       29.4960000000
 Au         0.0000000000        4.1460000000       29.4960000000
 Au         2.0730000000        2.0730000000       29.4960000000
 Au         2.0730000000        6.2190000000       29.4960000000
 Au         4.1460000000        0.0000000000       29.4960000000
 Au         4.1460000000        4.1460000000       29.4960000000
 Au         6.2190000000        2.0730000000       29.4960000000
 Au         6.2190000000        6.2190000000       29.4960000000
 Au         0.0000000000        2.0730000000       31.5690000000
 Au         0.0000000000        6.2190000000       31.5690000000
 Au         2.0730000000        0.0000000000       31.5690000000
 Au         2.0730000000        4.1460000000       31.5690000000
 Au         4.1460000000        2.0730000000       31.5690000000
 Au         4.1460000000        6.2190000000       31.5690000000
 Au         6.2190000000        0.0000000000       31.5690000000
 Au         6.2190000000        4.1460000000       31.5690000000
