       9
 i =        0, time =        0.000, E =      -298.8479570183
 Au         0.0000000000        0.0000000000        0.0000000000
 Au         0.0000000000        0.0000000000        0.0000000000
 Au         0.0000000000        0.0000000000        0.0000000000
 Au         0.0000000002        0.0000000002       -0.0000347793
 Au         0.0000000001        0.0000000001        0.0000000019
 Au         0.0000000002        0.0000000002        0.0000347802
 Au         0.0000000000        0.0000000000        0.0000000000
 Au         0.0000000000        0.0000000000        0.0000000000
 Au         0.0000000000        0.0000000000        0.0000000000
