       4
 i =        1, E =      -133.1463342793
 Au         1.0428221467        1.0428221467        1.0428221467
 Au         1.0428221467        3.1284678532        3.1284678532
 Au         3.1284678532        1.0428221467        3.1284678532
 Au         3.1284678532        3.1284678532        1.0428221467
