       4
 i =        1, E =      -133.1467655686
 Au         1.0365923820        1.0365923820        1.0365923820
 Au         1.0365923820        3.1097767591        3.1097767591
 Au         3.1097767591        1.0365923820        3.1097767591
 Au         3.1097767591        3.1097767591        1.0365923820
