       4
 i =        1, E =      -133.1467644140
 Au         1.0362814580        1.0362814580        1.0362814580
 Au         1.0362814580        3.1088499973        3.1088499973
 Au         3.1088499973        1.0362814580        3.1088499973
 Au         3.1088499973        3.1088499973        1.0362814580
