       4
 i =        1, E =      -133.1464371997
 Au         1.0420273069        1.0420273069        1.0420273069
 Au         1.0420273069        3.1260808520        3.1260808520
 Au         3.1260808520        1.0420273069        3.1260808520
 Au         3.1260808520        3.1260808520        1.0420273069
       4
 i =        2, E =      -133.1467644140
 Au         1.0362814580        1.0362814580        1.0362814580
 Au         1.0362814580        3.1088499973        3.1088499973
 Au         3.1088499973        1.0362814580        3.1088499973
 Au         3.1088499973        3.1088499973        1.0362814580
       4
 i =        3, E =      -133.1467655686
 Au         1.0365923820        1.0365923820        1.0365923820
 Au         1.0365923820        3.1097767591        3.1097767591
 Au         3.1097767591        1.0365923820        3.1097767591
 Au         3.1097767591        3.1097767591        1.0365923820
