       4
 i =        1, E =      -133.1464371997
 Au         1.0420273069        1.0420273069        1.0420273069
 Au         1.0420273069        3.1260808520        3.1260808520
 Au         3.1260808520        1.0420273069        3.1260808520
 Au         3.1260808520        3.1260808520        1.0420273069
