     113
 i =        0, time =        0.000, E =     -3690.6312268085
 Au         0.0000000000        0.0000000000        0.0000000000
 Au         0.0000000000        0.0000000000        0.0000000000
 Au         0.0000000000        0.0000000000        0.0000000000
 Au         0.0000000000        0.0000000000        0.0000000000
 Au         0.0000000000        0.0000000000        0.0000000000
 Au         0.0000000000        0.0000000000        0.0000000000
 Au         0.0000000000        0.0000000000        0.0000000000
 Au         0.0000000000        0.0000000000        0.0000000000
 Au         0.0000000000        0.0000000000        0.0000000000
 Au         0.0000000000        0.0000000000        0.0000000000
 Au         0.0000000000        0.0000000000        0.0000000000
 Au         0.0000000000        0.0000000000        0.0000000000
 Au         0.0000000000        0.0000000000        0.0000000000
 Au         0.0000000000        0.0000000000        0.0000000000
 Au         0.0000000000        0.0000000000        0.0000000000
 Au         0.0000000000        0.0000000000        0.0000000000
 Au         0.0000000000        0.0000000000        0.0000000000
 Au         0.0000000000        0.0000000000        0.0000000000
 Au         0.0000000000        0.0000000000        0.0000000000
 Au         0.0000000000        0.0000000000        0.0000000000
 Au         0.0000000000        0.0000000000        0.0000000000
 Au         0.0000000000        0.0000000000        0.0000000000
 Au         0.0000000000        0.0000000000        0.0000000000
 Au         0.0000000000        0.0000000000        0.0000000000
 Au         0.0000000000        0.0000000000        0.0000000000
 Au         0.0000000000        0.0000000000        0.0000000000
 Au         0.0000000000        0.0000000000        0.0000000000
 Au         0.0000000000        0.0000000000        0.0000000000
 Au         0.0000000000        0.0000000000        0.0000000000
 Au         0.0000000000        0.0000000000        0.0000000000
 Au         0.0000000000        0.0000000000        0.0000000000
 Au         0.0000000000        0.0000000000        0.0000000000
 Au         0.0000000000        0.0000000000        0.0000000000
 Au         0.0000000000        0.0000000000        0.0000000000
 Au         0.0000000000        0.0000000000        0.0000000000
 Au         0.0000000000        0.0000000000        0.0000000000
 Au         0.0000000000        0.0000000000        0.0000000000
 Au         0.0000000000        0.0000000000        0.0000000000
 Au         0.0000000000        0.0000000000        0.0000000000
 Au         0.0000000000        0.0000000000        0.0000000000
 Au         0.0000000000        0.0000000000        0.0000000000
 Au         0.0000000000        0.0000000000        0.0000000000
 Au         0.0000000000        0.0000000000        0.0000000000
 Au         0.0000000000        0.0000000000        0.0000000000
 Au         0.0000000000        0.0000000000        0.0000000000
 Au         0.0000000000        0.0000000000        0.0000000000
 Au         0.0000000000        0.0000000000        0.0000000000
 Au         0.0000000000        0.0000000000        0.0000000000
 Au         0.0000000000        0.0000000000        0.0000000000
 Au         0.0000000000        0.0000000000        0.0000000000
 Au         0.0000000000        0.0000000000        0.0000000000
 Au         0.0000000000        0.0000000000        0.0000000000
 Au         0.0000000000        0.0000000000        0.0000000000
 Au         0.0000000000        0.0000000000        0.0000000000
 Au        -0.0040825942       -0.0040074612        0.0016900364
 Au        -0.0040609833        0.0040328113        0.0015840242
 Au         0.0040056967       -0.0039144610        0.0016899462
 Au         0.0039486667        0.0039992310        0.0016632595
 Au        -0.0000474228       -0.0001970697       -0.0039919142
 Au         0.0000326026        0.0001690946        0.0085820061
  H        -0.0000236280       -0.0000507053        0.0012460257
  H        -0.0000354042       -0.0000126631       -0.0015087030
 Au         0.0000491640        0.0000215072       -0.0058780169
 Au        -0.0000357823       -0.0000259385       -0.0025780070
 Au        -0.0034216469       -0.0033585817       -0.0012403247
 Au        -0.0034553421        0.0034489225       -0.0010522587
 Au         0.0034410744       -0.0033906691       -0.0011216575
 Au         0.0034273348        0.0034020074       -0.0011452603
 Au         0.0000000000        0.0000000000        0.0000000000
 Au         0.0000000000        0.0000000000        0.0000000000
 Au         0.0000000000        0.0000000000        0.0000000000
 Au         0.0000000000        0.0000000000        0.0000000000
 Au         0.0000000000        0.0000000000        0.0000000000
 Au         0.0000000000        0.0000000000        0.0000000000
 Au         0.0000000000        0.0000000000        0.0000000000
 Au         0.0000000000        0.0000000000        0.0000000000
 Au         0.0000000000        0.0000000000        0.0000000000
 Au         0.0000000000        0.0000000000        0.0000000000
 Au         0.0000000000        0.0000000000        0.0000000000
 Au         0.0000000000        0.0000000000        0.0000000000
 Au         0.0000000000        0.0000000000        0.0000000000
 Au         0.0000000000        0.0000000000        0.0000000000
 Au         0.0000000000        0.0000000000        0.0000000000
 Au         0.0000000000        0.0000000000        0.0000000000
 Au         0.0000000000        0.0000000000        0.0000000000
 Au         0.0000000000        0.0000000000        0.0000000000
 Au         0.0000000000        0.0000000000        0.0000000000
 Au         0.0000000000        0.0000000000        0.0000000000
 Au         0.0000000000        0.0000000000        0.0000000000
 Au         0.0000000000        0.0000000000        0.0000000000
 Au         0.0000000000        0.0000000000        0.0000000000
 Au         0.0000000000        0.0000000000        0.0000000000
 Au         0.0000000000        0.0000000000        0.0000000000
 Au         0.0000000000        0.0000000000        0.0000000000
 Au         0.0000000000        0.0000000000        0.0000000000
 Au         0.0000000000        0.0000000000        0.0000000000
 Au         0.0000000000        0.0000000000        0.0000000000
 Au         0.0000000000        0.0000000000        0.0000000000
 Au         0.0000000000        0.0000000000        0.0000000000
 Au         0.0000000000        0.0000000000        0.0000000000
 Au         0.0000000000        0.0000000000        0.0000000000
 Au         0.0000000000        0.0000000000        0.0000000000
 Au         0.0000000000        0.0000000000        0.0000000000
 Au         0.0000000000        0.0000000000        0.0000000000
 Au         0.0000000000        0.0000000000        0.0000000000
 Au         0.0000000000        0.0000000000        0.0000000000
 Au         0.0000000000        0.0000000000        0.0000000000
 Au         0.0000000000        0.0000000000        0.0000000000
 Au         0.0000000000        0.0000000000        0.0000000000
 Au         0.0000000000        0.0000000000        0.0000000000
 Au         0.0000000000        0.0000000000        0.0000000000
 Au         0.0000000000        0.0000000000        0.0000000000
 Au         0.0000000000        0.0000000000        0.0000000000
