     113
 i =        0, time =        0.000, E =     -3690.6197997722
 Au         0.0000000000        0.0000000000        0.0000000000
 Au         0.0000000000        0.0000000000        0.0000000000
 Au         0.0000000000        0.0000000000        0.0000000000
 Au         0.0000000000        0.0000000000        0.0000000000
 Au         0.0000000000        0.0000000000        0.0000000000
 Au         0.0000000000        0.0000000000        0.0000000000
 Au         0.0000000000        0.0000000000        0.0000000000
 Au         0.0000000000        0.0000000000        0.0000000000
 Au         0.0000000000        0.0000000000        0.0000000000
 Au         0.0000000000        0.0000000000        0.0000000000
 Au         0.0000000000        0.0000000000        0.0000000000
 Au         0.0000000000        0.0000000000        0.0000000000
 Au         0.0000000000        0.0000000000        0.0000000000
 Au         0.0000000000        0.0000000000        0.0000000000
 Au         0.0000000000        0.0000000000        0.0000000000
 Au         0.0000000000        0.0000000000        0.0000000000
 Au         0.0000000000        0.0000000000        0.0000000000
 Au         0.0000000000        0.0000000000        0.0000000000
 Au         0.0000000000        0.0000000000        0.0000000000
 Au         0.0000000000        0.0000000000        0.0000000000
 Au         0.0000000000        0.0000000000        0.0000000000
 Au         0.0000000000        0.0000000000        0.0000000000
 Au         0.0000000000        0.0000000000        0.0000000000
 Au         0.0000000000        0.0000000000        0.0000000000
 Au         0.0000000000        0.0000000000        0.0000000000
 Au         0.0000000000        0.0000000000        0.0000000000
 Au         0.0000000000        0.0000000000        0.0000000000
 Au         0.0000000000        0.0000000000        0.0000000000
 Au         0.0000000000        0.0000000000        0.0000000000
 Au         0.0000000000        0.0000000000        0.0000000000
 Au         0.0000000000        0.0000000000        0.0000000000
 Au         0.0000000000        0.0000000000        0.0000000000
 Au         0.0000000000        0.0000000000        0.0000000000
 Au         0.0000000000        0.0000000000        0.0000000000
 Au         0.0000000000        0.0000000000        0.0000000000
 Au         0.0000000000        0.0000000000        0.0000000000
 Au         0.0000000000        0.0000000000        0.0000000000
 Au         0.0000000000        0.0000000000        0.0000000000
 Au         0.0000000000        0.0000000000        0.0000000000
 Au         0.0000000000        0.0000000000        0.0000000000
 Au         0.0000000000        0.0000000000        0.0000000000
 Au         0.0000000000        0.0000000000        0.0000000000
 Au         0.0000000000        0.0000000000        0.0000000000
 Au         0.0000000000        0.0000000000        0.0000000000
 Au         0.0000000000        0.0000000000        0.0000000000
 Au         0.0000000000        0.0000000000        0.0000000000
 Au         0.0000000000        0.0000000000        0.0000000000
 Au         0.0000000000        0.0000000000        0.0000000000
 Au         0.0000000000        0.0000000000        0.0000000000
 Au         0.0000000000        0.0000000000        0.0000000000
 Au         0.0000000000        0.0000000000        0.0000000000
 Au         0.0000000000        0.0000000000        0.0000000000
 Au         0.0000000000        0.0000000000        0.0000000000
 Au         0.0000000000        0.0000000000        0.0000000000
 Au         0.0000000000        0.0000000000        0.0000000000
 Au         0.0000000000        0.0000000000        0.0000000000
 Au         0.0000000000        0.0000000000        0.0000000000
 Au         0.0000000000        0.0000000000        0.0000000000
 Au        -0.0000466161       -0.0002229479       -0.0065900307
 Au         0.0000246367        0.0001616872        0.0101284923
  H        -0.0000100222       -0.0000227871       -0.0002762956
  H        -0.0000742603       -0.0000294359        0.0001763269
 Au         0.0000961069        0.0000368636       -0.0065841724
 Au        -0.0000788261       -0.0000344069       -0.0024313368
 Au         0.0000000000        0.0000000000        0.0000000000
 Au         0.0000000000        0.0000000000        0.0000000000
 Au         0.0000000000        0.0000000000        0.0000000000
 Au         0.0000000000        0.0000000000        0.0000000000
 Au         0.0000000000        0.0000000000        0.0000000000
 Au         0.0000000000        0.0000000000        0.0000000000
 Au         0.0000000000        0.0000000000        0.0000000000
 Au         0.0000000000        0.0000000000        0.0000000000
 Au         0.0000000000        0.0000000000        0.0000000000
 Au         0.0000000000        0.0000000000        0.0000000000
 Au         0.0000000000        0.0000000000        0.0000000000
 Au         0.0000000000        0.0000000000        0.0000000000
 Au         0.0000000000        0.0000000000        0.0000000000
 Au         0.0000000000        0.0000000000        0.0000000000
 Au         0.0000000000        0.0000000000        0.0000000000
 Au         0.0000000000        0.0000000000        0.0000000000
 Au         0.0000000000        0.0000000000        0.0000000000
 Au         0.0000000000        0.0000000000        0.0000000000
 Au         0.0000000000        0.0000000000        0.0000000000
 Au         0.0000000000        0.0000000000        0.0000000000
 Au         0.0000000000        0.0000000000        0.0000000000
 Au         0.0000000000        0.0000000000        0.0000000000
 Au         0.0000000000        0.0000000000        0.0000000000
 Au         0.0000000000        0.0000000000        0.0000000000
 Au         0.0000000000        0.0000000000        0.0000000000
 Au         0.0000000000        0.0000000000        0.0000000000
 Au         0.0000000000        0.0000000000        0.0000000000
 Au         0.0000000000        0.0000000000        0.0000000000
 Au         0.0000000000        0.0000000000        0.0000000000
 Au         0.0000000000        0.0000000000        0.0000000000
 Au         0.0000000000        0.0000000000        0.0000000000
 Au         0.0000000000        0.0000000000        0.0000000000
 Au         0.0000000000        0.0000000000        0.0000000000
 Au         0.0000000000        0.0000000000        0.0000000000
 Au         0.0000000000        0.0000000000        0.0000000000
 Au         0.0000000000        0.0000000000        0.0000000000
 Au         0.0000000000        0.0000000000        0.0000000000
 Au         0.0000000000        0.0000000000        0.0000000000
 Au         0.0000000000        0.0000000000        0.0000000000
 Au         0.0000000000        0.0000000000        0.0000000000
 Au         0.0000000000        0.0000000000        0.0000000000
 Au         0.0000000000        0.0000000000        0.0000000000
 Au         0.0000000000        0.0000000000        0.0000000000
 Au         0.0000000000        0.0000000000        0.0000000000
 Au         0.0000000000        0.0000000000        0.0000000000
 Au         0.0000000000        0.0000000000        0.0000000000
 Au         0.0000000000        0.0000000000        0.0000000000
 Au         0.0000000000        0.0000000000        0.0000000000
 Au         0.0000000000        0.0000000000        0.0000000000
