     113
 i =        0, time =        0.000, E =     -3690.6385695544
 Au         0.0000000000        0.0000000000        0.0000000000
 Au         0.0000000000        0.0000000000        0.0000000000
 Au         0.0000000000        0.0000000000        0.0000000000
 Au         0.0000000000        0.0000000000        0.0000000000
 Au         0.0000000000        0.0000000000        0.0000000000
 Au         0.0000000000        0.0000000000        0.0000000000
 Au         0.0000000000        0.0000000000        0.0000000000
 Au         0.0000000000        0.0000000000        0.0000000000
 Au         0.0000000000        0.0000000000        0.0000000000
 Au         0.0000000000        0.0000000000        0.0000000000
 Au         0.0000000000        0.0000000000        0.0000000000
 Au         0.0000000000        0.0000000000        0.0000000000
 Au         0.0000000000        0.0000000000        0.0000000000
 Au         0.0000000000        0.0000000000        0.0000000000
 Au         0.0000000000        0.0000000000        0.0000000000
 Au         0.0000000000        0.0000000000        0.0000000000
 Au         0.0000000000        0.0000000000        0.0000000000
 Au         0.0000000000        0.0000000000        0.0000000000
 Au         0.0000000000        0.0000000000        0.0000000000
 Au         0.0000000000        0.0000000000        0.0000000000
 Au         0.0000000000        0.0000000000        0.0000000000
 Au         0.0000000000        0.0000000000        0.0000000000
 Au         0.0000000000        0.0000000000        0.0000000000
 Au         0.0000000000        0.0000000000        0.0000000000
 Au         0.0000000000        0.0000000000        0.0000000000
 Au         0.0000000000        0.0000000000        0.0000000000
 Au         0.0000000000        0.0000000000        0.0000000000
 Au         0.0000000000        0.0000000000        0.0000000000
 Au         0.0000000000        0.0000000000        0.0000000000
 Au         0.0000000000        0.0000000000        0.0000000000
 Au         0.0000000000        0.0000000000        0.0000000000
 Au         0.0000000000        0.0000000000        0.0000000000
 Au         0.0000000000        0.0000000000        0.0000000000
 Au         0.0000000000        0.0000000000        0.0000000000
 Au         0.0000000000        0.0000000000        0.0000000000
 Au         0.0000000000        0.0000000000        0.0000000000
 Au         0.0000000000        0.0000000000        0.0000000000
 Au         0.0000000000        0.0000000000        0.0000000000
 Au         0.0000000000        0.0000000000        0.0000000000
 Au         0.0000000000        0.0000000000        0.0000000000
 Au         0.0000000000        0.0000000000        0.0000000000
 Au         0.0000000000        0.0000000000        0.0000000000
 Au         0.0000000000        0.0000000000        0.0000000000
 Au         0.0000000000        0.0000000000        0.0000000000
 Au         0.0000000000        0.0000000000        0.0000000000
 Au         0.0000000000        0.0000000000        0.0000000000
 Au         0.0000000000        0.0000000000        0.0000000000
 Au         0.0000000000        0.0000000000        0.0000000000
 Au         0.0000000000        0.0000000000        0.0000000000
 Au         0.0000000000        0.0000000000        0.0000000000
 Au         0.0000000000        0.0000000000        0.0000000000
 Au         0.0000000000        0.0000000000        0.0000000000
 Au         0.0000000000        0.0000000000        0.0000000000
 Au         0.0000000000        0.0000000000        0.0000000000
 Au         0.0000000000        0.0000000000        0.0000000000
 Au         0.0000000000        0.0000000000        0.0000000000
 Au         0.0000000000        0.0000000000        0.0000000000
 Au         0.0000000000        0.0000000000        0.0000000000
 Au        -0.0000451024       -0.0001574158       -0.0014492521
 Au         0.0000299017        0.0001414710        0.0070711405
  H        -0.0000264865       -0.0000548179        0.0023664796
  H        -0.0000013630        0.0000019829       -0.0026236338
 Au        -0.0000054753        0.0000031153       -0.0056127762
 Au         0.0000054613       -0.0000141659       -0.0019174108
 Au         0.0000000000        0.0000000000        0.0000000000
 Au         0.0000000000        0.0000000000        0.0000000000
 Au         0.0000000000        0.0000000000        0.0000000000
 Au         0.0000000000        0.0000000000        0.0000000000
 Au         0.0000000000        0.0000000000        0.0000000000
 Au         0.0000000000        0.0000000000        0.0000000000
 Au         0.0000000000        0.0000000000        0.0000000000
 Au         0.0000000000        0.0000000000        0.0000000000
 Au         0.0000000000        0.0000000000        0.0000000000
 Au         0.0000000000        0.0000000000        0.0000000000
 Au         0.0000000000        0.0000000000        0.0000000000
 Au         0.0000000000        0.0000000000        0.0000000000
 Au         0.0000000000        0.0000000000        0.0000000000
 Au         0.0000000000        0.0000000000        0.0000000000
 Au         0.0000000000        0.0000000000        0.0000000000
 Au         0.0000000000        0.0000000000        0.0000000000
 Au         0.0000000000        0.0000000000        0.0000000000
 Au         0.0000000000        0.0000000000        0.0000000000
 Au         0.0000000000        0.0000000000        0.0000000000
 Au         0.0000000000        0.0000000000        0.0000000000
 Au         0.0000000000        0.0000000000        0.0000000000
 Au         0.0000000000        0.0000000000        0.0000000000
 Au         0.0000000000        0.0000000000        0.0000000000
 Au         0.0000000000        0.0000000000        0.0000000000
 Au         0.0000000000        0.0000000000        0.0000000000
 Au         0.0000000000        0.0000000000        0.0000000000
 Au         0.0000000000        0.0000000000        0.0000000000
 Au         0.0000000000        0.0000000000        0.0000000000
 Au         0.0000000000        0.0000000000        0.0000000000
 Au         0.0000000000        0.0000000000        0.0000000000
 Au         0.0000000000        0.0000000000        0.0000000000
 Au         0.0000000000        0.0000000000        0.0000000000
 Au         0.0000000000        0.0000000000        0.0000000000
 Au         0.0000000000        0.0000000000        0.0000000000
 Au         0.0000000000        0.0000000000        0.0000000000
 Au         0.0000000000        0.0000000000        0.0000000000
 Au         0.0000000000        0.0000000000        0.0000000000
 Au         0.0000000000        0.0000000000        0.0000000000
 Au         0.0000000000        0.0000000000        0.0000000000
 Au         0.0000000000        0.0000000000        0.0000000000
 Au         0.0000000000        0.0000000000        0.0000000000
 Au         0.0000000000        0.0000000000        0.0000000000
 Au         0.0000000000        0.0000000000        0.0000000000
 Au         0.0000000000        0.0000000000        0.0000000000
 Au         0.0000000000        0.0000000000        0.0000000000
 Au         0.0000000000        0.0000000000        0.0000000000
 Au         0.0000000000        0.0000000000        0.0000000000
 Au         0.0000000000        0.0000000000        0.0000000000
 Au         0.0000000000        0.0000000000        0.0000000000
