     116
 i =        1, E =     -3518.3213468149
 Au         0.0000000000        0.0000000000        0.0000000000
 Au         0.0000000000        4.1460000000        0.0000000000
 Au         2.0730000000        2.0730000000        0.0000000000
 Au         2.0730000000        6.2190000000        0.0000000000
 Au         4.1460000000        0.0000000000        0.0000000000
 Au         4.1460000000        4.1460000000        0.0000000000
 Au         6.2190000000        2.0730000000        0.0000000000
 Au         6.2190000000        6.2190000000        0.0000000000
 Au         0.0000000000        2.0730000000        2.0730000000
 Au         0.0000000000        6.2190000000        2.0730000000
 Au         2.0730000000        0.0000000000        2.0730000000
 Au         2.0730000000        4.1460000000        2.0730000000
 Au         4.1460000000        2.0730000000        2.0730000000
 Au         4.1460000000        6.2190000000        2.0730000000
 Au         6.2190000000        0.0000000000        2.0730000000
 Au         6.2190000000        4.1460000000        2.0730000000
 Au         0.0000000000        0.0000000000        4.1460000000
 Au         0.0000000000        4.1460000000        4.1460000000
 Au         2.0730000000        2.0730000000        4.1460000000
 Au         2.0730000000        6.2190000000        4.1460000000
 Au         4.1460000000        0.0000000000        4.1460000000
 Au         4.1460000000        4.1460000000        4.1460000000
 Au         6.2190000000        2.0730000000        4.1460000000
 Au         6.2190000000        6.2190000000        4.1460000000
 Au         0.0000000000        2.0730000000        6.2190000000
 Au         0.0000000000        6.2190000000        6.2190000000
 Au         2.0730000000        0.0000000000        6.2190000000
 Au         2.0730000000        4.1460000000        6.2190000000
 Au         4.1460000000        2.0730000000        6.2190000000
 Au         4.1460000000        6.2190000000        6.2190000000
 Au         6.2190000000        0.0000000000        6.2190000000
 Au         6.2190000000        4.1460000000        6.2190000000
 Au         0.0000000000        0.0000000000        8.2920000000
 Au         0.0000000000        4.1460000000        8.2920000000
 Au         2.0730000000        2.0730000000        8.2920000000
 Au         2.0730000000        6.2190000000        8.2920000000
 Au         4.1460000000        0.0000000000        8.2920000000
 Au         4.1460000000        4.1460000000        8.2920000000
 Au         6.2190000000        2.0730000000        8.2920000000
 Au         6.2190000000        6.2190000000        8.2920000000
 Au        -0.0000042675        2.0730003632       10.3661045425
 Au        -0.0000014930        6.2189951143       10.3643128778
 Au         2.0729884853        0.0000843843       10.3643403049
 Au         2.0729863149        4.1459230572       10.3643330740
 Au         4.1459984918        2.0729937303       10.3619138477
 Au         4.1459986386        6.2189870822       10.3660312122
 Au         6.2190142731        0.0000845900       10.3643389970
 Au         6.2190165065        4.1459228436       10.3643316190
 Au         0.0000012635       -0.0003781954       12.4383471596
 Au         0.0000013297        4.1463853659       12.4383533574
 Au         2.0686966363        2.0730088210       12.4402237044
 Au         2.0725953541        6.2189991971       12.4383617608
 Au         4.1459999057       -0.0046459387       12.4396373064
 Au         4.1460001107        4.1505638163       12.4397145532
 Au         6.2232753610        2.0730090480       12.4402539099
 Au         6.2194056626        6.2189992826       12.4383629284
  S         4.1460725239        2.0732256281       14.2424747369
  C         4.1461817096        2.0780761594       16.0073542346
  H         2.0282947065        2.1029173108       16.1794584969
  H         6.2629939895        2.1029144781       16.1856491255
  C         2.9584200770        2.0817755431       16.7309794995
  C         5.3310400508        2.0817892000       16.7326845919
  C         2.9499048356        2.0622105971       18.1043364616
  C         5.3226559429        2.0622243060       18.1056947230
  H         2.0180100539        2.0410893671       18.6513556455
  H         6.2526887515        2.0410859666       18.6575459484
  C         4.1350630694        2.0659771699       18.8290671319
  S         4.1455661306        2.0727429801       20.5944045458
 Au        -0.0000045275       -0.0003857387       22.3986466061
 Au        -0.0000045179        4.1463779260       22.3986530502
 Au         2.0687775537        2.0729937349       22.3966897430
 Au         2.0725924330        6.2189976836       22.3986380539
 Au         4.1460031064       -0.0045535520       22.3972758865
 Au         4.1460032996        4.1506497334       22.3973658386
 Au         6.2233512150        2.0729939849       22.3968290205
 Au         6.2190000000        6.2190000000       22.3990000000
 Au         0.0000000000        2.0730000000       24.4720000000
 Au         0.0000000000        6.2190000000       24.4720000000
 Au         2.0730000000        0.0000000000       24.4720000000
 Au         2.0730000000        4.1460000000       24.4720000000
 Au         4.1460000000        2.0730000000       24.4720000000
 Au         4.1460000000        6.2190000000       24.4720000000
 Au         6.2190000000        0.0000000000       24.4720000000
 Au         6.2190000000        4.1460000000       24.4720000000
 Au         0.0000000000        0.0000000000       26.5450000000
 Au         0.0000000000        4.1460000000       26.5450000000
 Au         2.0730000000        2.0730000000       26.5450000000
 Au         2.0730000000        6.2190000000       26.5450000000
 Au         4.1460000000        0.0000000000       26.5450000000
 Au         4.1460000000        4.1460000000       26.5450000000
 Au         6.2190000000        2.0730000000       26.5450000000
 Au         6.2190000000        6.2190000000       26.5450000000
 Au         0.0000000000        2.0730000000       28.6180000000
 Au         0.0000000000        6.2190000000       28.6180000000
 Au         2.0730000000        0.0000000000       28.6180000000
 Au         2.0730000000        4.1460000000       28.6180000000
 Au         4.1460000000        2.0730000000       28.6180000000
 Au         4.1460000000        6.2190000000       28.6180000000
 Au         6.2190000000        0.0000000000       28.6180000000
 Au         6.2190000000        4.1460000000       28.6180000000
 Au         0.0000000000        0.0000000000       30.6910000000
 Au         0.0000000000        4.1460000000       30.6910000000
 Au         2.0730000000        2.0730000000       30.6910000000
 Au         2.0730000000        6.2190000000       30.6910000000
 Au         4.1460000000        0.0000000000       30.6910000000
 Au         4.1460000000        4.1460000000       30.6910000000
 Au         6.2190000000        2.0730000000       30.6910000000
 Au         6.2190000000        6.2190000000       30.6910000000
 Au         0.0000000000        2.0730000000       32.7640000000
 Au         0.0000000000        6.2190000000       32.7640000000
 Au         2.0730000000        0.0000000000       32.7640000000
 Au         2.0730000000        4.1460000000       32.7640000000
 Au         4.1460000000        2.0730000000       32.7640000000
 Au         4.1460000000        6.2190000000       32.7640000000
 Au         6.2190000000        0.0000000000       32.7640000000
 Au         6.2190000000        4.1460000000       32.7640000000
     116
 i =        2, E =     -3518.3254940351
 Au         0.0000000000        0.0000000000        0.0000000000
 Au         0.0000000000        4.1460000000        0.0000000000
 Au         2.0730000000        2.0730000000        0.0000000000
 Au         2.0730000000        6.2190000000        0.0000000000
 Au         4.1460000000        0.0000000000        0.0000000000
 Au         4.1460000000        4.1460000000        0.0000000000
 Au         6.2190000000        2.0730000000        0.0000000000
 Au         6.2190000000        6.2190000000        0.0000000000
 Au         0.0000000000        2.0730000000        2.0730000000
 Au         0.0000000000        6.2190000000        2.0730000000
 Au         2.0730000000        0.0000000000        2.0730000000
 Au         2.0730000000        4.1460000000        2.0730000000
 Au         4.1460000000        2.0730000000        2.0730000000
 Au         4.1460000000        6.2190000000        2.0730000000
 Au         6.2190000000        0.0000000000        2.0730000000
 Au         6.2190000000        4.1460000000        2.0730000000
 Au         0.0000000000        0.0000000000        4.1460000000
 Au         0.0000000000        4.1460000000        4.1460000000
 Au         2.0730000000        2.0730000000        4.1460000000
 Au         2.0730000000        6.2190000000        4.1460000000
 Au         4.1460000000        0.0000000000        4.1460000000
 Au         4.1460000000        4.1460000000        4.1460000000
 Au         6.2190000000        2.0730000000        4.1460000000
 Au         6.2190000000        6.2190000000        4.1460000000
 Au         0.0000000000        2.0730000000        6.2190000000
 Au         0.0000000000        6.2190000000        6.2190000000
 Au         2.0730000000        0.0000000000        6.2190000000
 Au         2.0730000000        4.1460000000        6.2190000000
 Au         4.1460000000        2.0730000000        6.2190000000
 Au         4.1460000000        6.2190000000        6.2190000000
 Au         6.2190000000        0.0000000000        6.2190000000
 Au         6.2190000000        4.1460000000        6.2190000000
 Au         0.0000000000        0.0000000000        8.2920000000
 Au         0.0000000000        4.1460000000        8.2920000000
 Au         2.0730000000        2.0730000000        8.2920000000
 Au         2.0730000000        6.2190000000        8.2920000000
 Au         4.1460000000        0.0000000000        8.2920000000
 Au         4.1460000000        4.1460000000        8.2920000000
 Au         6.2190000000        2.0730000000        8.2920000000
 Au         6.2190000000        6.2190000000        8.2920000000
 Au        -0.0000010235        2.0730052961       10.3740230874
 Au        -0.0000047732        6.2189624292       10.3594676964
 Au         2.0731176733        0.0010177451       10.3599155570
 Au         2.0731089100        4.1450465252       10.3598566454
 Au         4.1460063847        2.0729463594       10.3418101097
 Au         4.1459908443        6.2188654612       10.3732244795
 Au         6.2188834714        0.0010231509       10.3599240798
 Au         6.2188926923        4.1450410919       10.3598643312
 Au         0.0000023267       -0.0038748657       12.4410948130
 Au         0.0000028108        4.1499372086       12.4411515981
 Au         2.0379072991        2.0730600110       12.4569678975
 Au         2.0688593361        6.2189934324       12.4412330392
 Au         4.1459964738       -0.0382340887       12.4515147069
 Au         4.1459975455        4.1835426563       12.4522048045
 Au         6.2540702937        2.0730610741       12.4570021030
 Au         6.2231416571        6.2189939820       12.4412419091
  S         4.1461086570        2.0751614921       14.2382320157
  C         4.1410784419        2.0847604674       16.0134795353
  H         1.9980561221        2.0995680455       16.1700867194
  H         6.2951621860        2.0995690484       16.1771434897
  C         2.9464829763        2.0782001978       16.7134726106
  C         5.3372888398        2.0782146851       16.7198954888
  C         2.9441779758        2.0658398314       18.1168561230
  C         5.3349454685        2.0658084730       18.1226426361
  H         1.9857409244        2.0444538489       18.6599418747
  H         6.2827476379        2.0444591380       18.6667010750
  C         4.1411315748        2.0596617032       18.8244393942
  S         4.1429056011        2.0705669353       20.5980116243
 Au        -0.0000389430       -0.0037408508       22.3957820292
 Au        -0.0000392264        4.1496708065       22.3958400907
 Au         2.0379242065        2.0729663199       22.3793087393
 Au         2.0690317959        6.2189815705       22.3956661459
 Au         4.1460218398       -0.0378407098       22.3844610182
 Au         4.1460230920        4.1846298191       22.3852546422
 Au         6.2548642210        2.0729677126       22.3802330935
 Au         6.2190000000        6.2190000000       22.3990000000
 Au         0.0000000000        2.0730000000       24.4720000000
 Au         0.0000000000        6.2190000000       24.4720000000
 Au         2.0730000000        0.0000000000       24.4720000000
 Au         2.0730000000        4.1460000000       24.4720000000
 Au         4.1460000000        2.0730000000       24.4720000000
 Au         4.1460000000        6.2190000000       24.4720000000
 Au         6.2190000000        0.0000000000       24.4720000000
 Au         6.2190000000        4.1460000000       24.4720000000
 Au         0.0000000000        0.0000000000       26.5450000000
 Au         0.0000000000        4.1460000000       26.5450000000
 Au         2.0730000000        2.0730000000       26.5450000000
 Au         2.0730000000        6.2190000000       26.5450000000
 Au         4.1460000000        0.0000000000       26.5450000000
 Au         4.1460000000        4.1460000000       26.5450000000
 Au         6.2190000000        2.0730000000       26.5450000000
 Au         6.2190000000        6.2190000000       26.5450000000
 Au         0.0000000000        2.0730000000       28.6180000000
 Au         0.0000000000        6.2190000000       28.6180000000
 Au         2.0730000000        0.0000000000       28.6180000000
 Au         2.0730000000        4.1460000000       28.6180000000
 Au         4.1460000000        2.0730000000       28.6180000000
 Au         4.1460000000        6.2190000000       28.6180000000
 Au         6.2190000000        0.0000000000       28.6180000000
 Au         6.2190000000        4.1460000000       28.6180000000
 Au         0.0000000000        0.0000000000       30.6910000000
 Au         0.0000000000        4.1460000000       30.6910000000
 Au         2.0730000000        2.0730000000       30.6910000000
 Au         2.0730000000        6.2190000000       30.6910000000
 Au         4.1460000000        0.0000000000       30.6910000000
 Au         4.1460000000        4.1460000000       30.6910000000
 Au         6.2190000000        2.0730000000       30.6910000000
 Au         6.2190000000        6.2190000000       30.6910000000
 Au         0.0000000000        2.0730000000       32.7640000000
 Au         0.0000000000        6.2190000000       32.7640000000
 Au         2.0730000000        0.0000000000       32.7640000000
 Au         2.0730000000        4.1460000000       32.7640000000
 Au         4.1460000000        2.0730000000       32.7640000000
 Au         4.1460000000        6.2190000000       32.7640000000
 Au         6.2190000000        0.0000000000       32.7640000000
 Au         6.2190000000        4.1460000000       32.7640000000
     116
 i =        3, E =     -3518.3271817154
 Au         0.0000000000        0.0000000000        0.0000000000
 Au         0.0000000000        4.1460000000        0.0000000000
 Au         2.0730000000        2.0730000000        0.0000000000
 Au         2.0730000000        6.2190000000        0.0000000000
 Au         4.1460000000        0.0000000000        0.0000000000
 Au         4.1460000000        4.1460000000        0.0000000000
 Au         6.2190000000        2.0730000000        0.0000000000
 Au         6.2190000000        6.2190000000        0.0000000000
 Au         0.0000000000        2.0730000000        2.0730000000
 Au         0.0000000000        6.2190000000        2.0730000000
 Au         2.0730000000        0.0000000000        2.0730000000
 Au         2.0730000000        4.1460000000        2.0730000000
 Au         4.1460000000        2.0730000000        2.0730000000
 Au         4.1460000000        6.2190000000        2.0730000000
 Au         6.2190000000        0.0000000000        2.0730000000
 Au         6.2190000000        4.1460000000        2.0730000000
 Au         0.0000000000        0.0000000000        4.1460000000
 Au         0.0000000000        4.1460000000        4.1460000000
 Au         2.0730000000        2.0730000000        4.1460000000
 Au         2.0730000000        6.2190000000        4.1460000000
 Au         4.1460000000        0.0000000000        4.1460000000
 Au         4.1460000000        4.1460000000        4.1460000000
 Au         6.2190000000        2.0730000000        4.1460000000
 Au         6.2190000000        6.2190000000        4.1460000000
 Au         0.0000000000        2.0730000000        6.2190000000
 Au         0.0000000000        6.2190000000        6.2190000000
 Au         2.0730000000        0.0000000000        6.2190000000
 Au         2.0730000000        4.1460000000        6.2190000000
 Au         4.1460000000        2.0730000000        6.2190000000
 Au         4.1460000000        6.2190000000        6.2190000000
 Au         6.2190000000        0.0000000000        6.2190000000
 Au         6.2190000000        4.1460000000        6.2190000000
 Au         0.0000000000        0.0000000000        8.2920000000
 Au         0.0000000000        4.1460000000        8.2920000000
 Au         2.0730000000        2.0730000000        8.2920000000
 Au         2.0730000000        6.2190000000        8.2920000000
 Au         4.1460000000        0.0000000000        8.2920000000
 Au         4.1460000000        4.1460000000        8.2920000000
 Au         6.2190000000        2.0730000000        8.2920000000
 Au         6.2190000000        6.2190000000        8.2920000000
 Au         0.0000145500        2.0730121510       10.3778728269
 Au        -0.0000039989        6.2189486202       10.3573034522
 Au         2.0736447088        0.0020736681       10.3583937725
 Au         2.0736469655        4.1440257029       10.3583098204
 Au         4.1460159134        2.0729175574       10.3353159149
 Au         4.1459874210        6.2187463190       10.3763667084
 Au         6.2183494512        0.0020820086       10.3584134501
 Au         6.2183479289        4.1440174446       10.3583282911
 Au         0.0000011789       -0.0071364773       12.4428309406
 Au         0.0000019223        4.1532376952       12.4429161147
 Au         2.0232450558        2.0730602670       12.4666667068
 Au         2.0653297650        6.2189906647       12.4430074453
 Au         4.1459961439       -0.0545002240       12.4582585291
 Au         4.1459975625        4.1994760922       12.4593602542
 Au         6.2688081267        2.0730616454       12.4666378774
 Au         6.2266667846        6.2189914754       12.4430187133
  S         4.1460083729        2.0765822205       14.2335451910
  C         4.1422299894        2.0869303144       16.0093266038
  H         1.9875004527        2.0973059407       16.1673304050
  H         6.3022589975        2.0972383272       16.1767786987
  C         2.9321529158        2.0776187304       16.7232477341
  C         5.3507313104        2.0777080746       16.7272717980
  C         2.9311819124        2.0663973874       18.1097920187
  C         5.3493692991        2.0664330490       18.1132153441
  H         1.9789211533        2.0467985590       18.6601528909
  H         6.2934286731        2.0467265467       18.6693349544
  C         4.1398431666        2.0576550110       18.8280209720
  S         4.1416298501        2.0690247240       20.6024930427
 Au        -0.0000831544       -0.0065930224       22.3938676680
 Au        -0.0000838895        4.1524759991       22.3939536920
 Au         2.0225260637        2.0729855727       22.3690751850
 Au         2.0659225539        6.2189750318       22.3936485950
 Au         4.1459856144       -0.0544386545       22.3768024065
 Au         4.1459873965        4.2015750533       22.3780505213
 Au         6.2704449410        2.0729875489       22.3703524897
 Au         6.2190000000        6.2190000000       22.3990000000
 Au         0.0000000000        2.0730000000       24.4720000000
 Au         0.0000000000        6.2190000000       24.4720000000
 Au         2.0730000000        0.0000000000       24.4720000000
 Au         2.0730000000        4.1460000000       24.4720000000
 Au         4.1460000000        2.0730000000       24.4720000000
 Au         4.1460000000        6.2190000000       24.4720000000
 Au         6.2190000000        0.0000000000       24.4720000000
 Au         6.2190000000        4.1460000000       24.4720000000
 Au         0.0000000000        0.0000000000       26.5450000000
 Au         0.0000000000        4.1460000000       26.5450000000
 Au         2.0730000000        2.0730000000       26.5450000000
 Au         2.0730000000        6.2190000000       26.5450000000
 Au         4.1460000000        0.0000000000       26.5450000000
 Au         4.1460000000        4.1460000000       26.5450000000
 Au         6.2190000000        2.0730000000       26.5450000000
 Au         6.2190000000        6.2190000000       26.5450000000
 Au         0.0000000000        2.0730000000       28.6180000000
 Au         0.0000000000        6.2190000000       28.6180000000
 Au         2.0730000000        0.0000000000       28.6180000000
 Au         2.0730000000        4.1460000000       28.6180000000
 Au         4.1460000000        2.0730000000       28.6180000000
 Au         4.1460000000        6.2190000000       28.6180000000
 Au         6.2190000000        0.0000000000       28.6180000000
 Au         6.2190000000        4.1460000000       28.6180000000
 Au         0.0000000000        0.0000000000       30.6910000000
 Au         0.0000000000        4.1460000000       30.6910000000
 Au         2.0730000000        2.0730000000       30.6910000000
 Au         2.0730000000        6.2190000000       30.6910000000
 Au         4.1460000000        0.0000000000       30.6910000000
 Au         4.1460000000        4.1460000000       30.6910000000
 Au         6.2190000000        2.0730000000       30.6910000000
 Au         6.2190000000        6.2190000000       30.6910000000
 Au         0.0000000000        2.0730000000       32.7640000000
 Au         0.0000000000        6.2190000000       32.7640000000
 Au         2.0730000000        0.0000000000       32.7640000000
 Au         2.0730000000        4.1460000000       32.7640000000
 Au         4.1460000000        2.0730000000       32.7640000000
 Au         4.1460000000        6.2190000000       32.7640000000
 Au         6.2190000000        0.0000000000       32.7640000000
 Au         6.2190000000        4.1460000000       32.7640000000
     116
 i =        4, E =     -3518.3277956584
 Au         0.0000000000        0.0000000000        0.0000000000
 Au         0.0000000000        4.1460000000        0.0000000000
 Au         2.0730000000        2.0730000000        0.0000000000
 Au         2.0730000000        6.2190000000        0.0000000000
 Au         4.1460000000        0.0000000000        0.0000000000
 Au         4.1460000000        4.1460000000        0.0000000000
 Au         6.2190000000        2.0730000000        0.0000000000
 Au         6.2190000000        6.2190000000        0.0000000000
 Au         0.0000000000        2.0730000000        2.0730000000
 Au         0.0000000000        6.2190000000        2.0730000000
 Au         2.0730000000        0.0000000000        2.0730000000
 Au         2.0730000000        4.1460000000        2.0730000000
 Au         4.1460000000        2.0730000000        2.0730000000
 Au         4.1460000000        6.2190000000        2.0730000000
 Au         6.2190000000        0.0000000000        2.0730000000
 Au         6.2190000000        4.1460000000        2.0730000000
 Au         0.0000000000        0.0000000000        4.1460000000
 Au         0.0000000000        4.1460000000        4.1460000000
 Au         2.0730000000        2.0730000000        4.1460000000
 Au         2.0730000000        6.2190000000        4.1460000000
 Au         4.1460000000        0.0000000000        4.1460000000
 Au         4.1460000000        4.1460000000        4.1460000000
 Au         6.2190000000        2.0730000000        4.1460000000
 Au         6.2190000000        6.2190000000        4.1460000000
 Au         0.0000000000        2.0730000000        6.2190000000
 Au         0.0000000000        6.2190000000        6.2190000000
 Au         2.0730000000        0.0000000000        6.2190000000
 Au         2.0730000000        4.1460000000        6.2190000000
 Au         4.1460000000        2.0730000000        6.2190000000
 Au         4.1460000000        6.2190000000        6.2190000000
 Au         6.2190000000        0.0000000000        6.2190000000
 Au         6.2190000000        4.1460000000        6.2190000000
 Au         0.0000000000        0.0000000000        8.2920000000
 Au         0.0000000000        4.1460000000        8.2920000000
 Au         2.0730000000        2.0730000000        8.2920000000
 Au         2.0730000000        6.2190000000        8.2920000000
 Au         4.1460000000        0.0000000000        8.2920000000
 Au         4.1460000000        4.1460000000        8.2920000000
 Au         6.2190000000        2.0730000000        8.2920000000
 Au         6.2190000000        6.2190000000        8.2920000000
 Au         0.0000493599        2.0730334210       10.3799327726
 Au        -0.0000006612        6.2189485844       10.3564812973
 Au         2.0752609736        0.0043899058       10.3596282280
 Au         2.0753072231        4.1417363444       10.3595400021
 Au         4.1460261776        2.0728924362       10.3409648203
 Au         4.1459844664        6.2185100063       10.3768991651
 Au         6.2167243675        0.0043973467       10.3596608142
 Au         6.2166791670        4.1417292632       10.3595710935
 Au         0.0000018097       -0.0132229450       12.4449334528
 Au         0.0000029819        4.1593768648       12.4450395798
 Au         2.0159069420        2.0729814884       12.4761791249
 Au         2.0586455986        6.2189879923       12.4450822185
 Au         4.1460028978       -0.0633465278       12.4644745817
 Au         4.1460044505        4.2081190210       12.4660913740
 Au         6.2762775574        2.0729828877       12.4760258699
 Au         6.2333382856        6.2189891939       12.4450927687
  S         4.1457352992        2.0786046559       14.2299898991
  C         4.1440110963        2.0853979073       16.0155738927
  H         1.9888566278        2.0944838160       16.1708059710
  H         6.2953286834        2.0943519772       16.1822208349
  C         2.9309498171        2.0802822206       16.7224625508
  C         5.3559888919        2.0804260769       16.7230764478
  C         2.9255721991        2.0638248773       18.1139423867
  C         5.3507296767        2.0639374067       18.1146652053
  H         1.9866392058        2.0496999755       18.6543888076
  H         6.2926767773        2.0495344748       18.6659956249
  C         4.1375340970        2.0592055105       18.8204904780
  S         4.1408269657        2.0669166903       20.6059077997
 Au        -0.0002384566       -0.0116014345       22.3913525349
 Au        -0.0002400051        4.1574141054       22.3914577969
 Au         2.0132184252        2.0730963563       22.3588017789
 Au         2.0603071068        6.2189780406       22.3908579566
 Au         4.1457432376       -0.0644854878       22.3690292438
 Au         4.1457438535        4.2117596227       22.3708015765
 Au         6.2795819607        2.0730980435       22.3603027433
 Au         6.2190000000        6.2190000000       22.3990000000
 Au         0.0000000000        2.0730000000       24.4720000000
 Au         0.0000000000        6.2190000000       24.4720000000
 Au         2.0730000000        0.0000000000       24.4720000000
 Au         2.0730000000        4.1460000000       24.4720000000
 Au         4.1460000000        2.0730000000       24.4720000000
 Au         4.1460000000        6.2190000000       24.4720000000
 Au         6.2190000000        0.0000000000       24.4720000000
 Au         6.2190000000        4.1460000000       24.4720000000
 Au         0.0000000000        0.0000000000       26.5450000000
 Au         0.0000000000        4.1460000000       26.5450000000
 Au         2.0730000000        2.0730000000       26.5450000000
 Au         2.0730000000        6.2190000000       26.5450000000
 Au         4.1460000000        0.0000000000       26.5450000000
 Au         4.1460000000        4.1460000000       26.5450000000
 Au         6.2190000000        2.0730000000       26.5450000000
 Au         6.2190000000        6.2190000000       26.5450000000
 Au         0.0000000000        2.0730000000       28.6180000000
 Au         0.0000000000        6.2190000000       28.6180000000
 Au         2.0730000000        0.0000000000       28.6180000000
 Au         2.0730000000        4.1460000000       28.6180000000
 Au         4.1460000000        2.0730000000       28.6180000000
 Au         4.1460000000        6.2190000000       28.6180000000
 Au         6.2190000000        0.0000000000       28.6180000000
 Au         6.2190000000        4.1460000000       28.6180000000
 Au         0.0000000000        0.0000000000       30.6910000000
 Au         0.0000000000        4.1460000000       30.6910000000
 Au         2.0730000000        2.0730000000       30.6910000000
 Au         2.0730000000        6.2190000000       30.6910000000
 Au         4.1460000000        0.0000000000       30.6910000000
 Au         4.1460000000        4.1460000000       30.6910000000
 Au         6.2190000000        2.0730000000       30.6910000000
 Au         6.2190000000        6.2190000000       30.6910000000
 Au         0.0000000000        2.0730000000       32.7640000000
 Au         0.0000000000        6.2190000000       32.7640000000
 Au         2.0730000000        0.0000000000       32.7640000000
 Au         2.0730000000        4.1460000000       32.7640000000
 Au         4.1460000000        2.0730000000       32.7640000000
 Au         4.1460000000        6.2190000000       32.7640000000
 Au         6.2190000000        0.0000000000       32.7640000000
 Au         6.2190000000        4.1460000000       32.7640000000
