     113
 i =        1, E =     -3690.5610899215
 Au         1.7870000000        1.2810000000        0.0000000000
 Au         0.3090000000        2.7590000000        2.0900000000
 Au         1.7870000000        1.2810000000        4.1800000000
 Au         0.3090000000        2.7590000000        6.2700000000
 Au         4.7430000000        1.2810000000        0.0000000000
 Au         3.2650000000        2.7590000000        2.0900000000
 Au         4.7430000000        1.2810000000        4.1800000000
 Au         3.2650000000        2.7590000000        6.2700000000
 Au         7.6990000000        1.2810000000        0.0000000000
 Au         6.2210000000        2.7590000000        2.0900000000
 Au         7.6990000000        1.2810000000        4.1800000000
 Au         6.2210000000        2.7590000000        6.2700000000
 Au         1.7870000000        4.2360000000        0.0000000000
 Au         0.3090000000        5.7140000000        2.0900000000
 Au         1.7870000000        4.2360000000        4.1800000000
 Au         0.3090000000        5.7140000000        6.2700000000
 Au         4.7430000000        4.2360000000        0.0000000000
 Au         3.2650000000        5.7140000000        2.0900000000
 Au         4.7430000000        4.2360000000        4.1800000000
 Au         3.2650000000        5.7140000000        6.2700000000
 Au         7.6990000000        4.2360000000        0.0000000000
 Au         6.2210000000        5.7140000000        2.0900000000
 Au         7.6990000000        4.2360000000        4.1800000000
 Au         6.2210000000        5.7140000000        6.2700000000
 Au         1.7870000000        7.1920000000        0.0000000000
 Au         0.3090000000        8.6700000000        2.0900000000
 Au         1.7870000000        7.1920000000        4.1800000000
 Au         0.3090000000        8.6700000000        6.2700000000
 Au         4.7430000000        7.1920000000        0.0000000000
 Au         3.2650000000        8.6700000000        2.0900000000
 Au         4.7430000000        7.1920000000        4.1800000000
 Au         3.2650000000        8.6700000000        6.2700000000
 Au         7.6990000000        7.1920000000        0.0000000000
 Au         6.2210000000        8.6700000000        2.0900000000
 Au         7.6990000000        7.1920000000        4.1800000000
 Au         6.2210000000        8.6700000000        6.2700000000
 Au         1.7870000000        1.2810000000        8.3600000000
 Au         1.7870000000        4.2360000000        8.3600000000
 Au         1.7870000000        7.1920000000        8.3600000000
 Au         4.7430000000        1.2810000000        8.3600000000
 Au         4.7430000000        4.2360000000        8.3600000000
 Au         4.7430000000        7.1920000000        8.3600000000
 Au         7.6990000000        1.2810000000        8.3600000000
 Au         7.6990000000        4.2360000000        8.3600000000
 Au         7.6990000000        7.1920000000        8.3600000000
 Au         0.3090000000        2.7590000000       10.4500000000
 Au         0.3090000000        5.7140000000       10.4500000000
 Au         0.3090000000        8.6700000000       10.4500000000
 Au         3.2650000000        2.7590000000       10.4500000000
 Au         3.2650000000        5.7140000000       10.4500000000
 Au         3.2650000000        8.6700000000       10.4500000000
 Au         6.2210000000        2.7590000000       10.4500000000
 Au         6.2210000000        5.7140000000       10.4500000000
 Au         6.2210000000        8.6700000000       10.4500000000
 Au         1.7670000000        4.2150000000       12.4460000000
 Au         1.7660000000        7.2140000000       12.4460000000
 Au         4.7650000000        4.2130000000       12.4460000000
 Au         4.7670000000        7.2140000000       12.4450000000
 Au         3.2677638996        5.7155811857       14.3534705392
 Au         3.2671374622        5.7447427117       17.0934556744
  H         3.2540465699        5.7200472172       18.9344745866
  H         3.2594683211        5.7257438387       19.7934423024
 Au         3.2335107696        5.7122159459       21.6333622246
 Au         3.2633084579        5.7137435431       24.3157506037
 Au         1.7650000000        4.2130000000       26.2750000000
 Au         1.7650000000        7.2140000000       26.2740000000
 Au         4.7650000000        4.2140000000       26.2740000000
 Au         4.7650000000        7.2140000000       26.2750000000
 Au         0.3090000000        2.7590000000       28.2700000000
 Au         0.3090000000        5.7140000000       28.2700000000
 Au         0.3090000000        8.6700000000       28.2700000000
 Au         3.2650000000        2.7590000000       28.2700000000
 Au         3.2650000000        5.7140000000       28.2700000000
 Au         3.2650000000        8.6700000000       28.2700000000
 Au         6.2210000000        2.7590000000       28.2700000000
 Au         6.2210000000        5.7140000000       28.2700000000
 Au         6.2210000000        8.6700000000       28.2700000000
 Au         1.7870000000        1.2810000000       30.3600000000
 Au         0.3090000000        2.7590000000       32.4500000000
 Au         1.7870000000        1.2810000000       34.5400000000
 Au         0.3090000000        2.7590000000       36.6300000000
 Au         4.7430000000        1.2810000000       30.3600000000
 Au         3.2650000000        2.7590000000       32.4500000000
 Au         4.7430000000        1.2810000000       34.5400000000
 Au         3.2650000000        2.7590000000       36.6300000000
 Au         7.6990000000        1.2810000000       30.3600000000
 Au         6.2210000000        2.7590000000       32.4500000000
 Au         7.6990000000        1.2810000000       34.5400000000
 Au         6.2210000000        2.7590000000       36.6300000000
 Au         1.7870000000        4.2360000000       30.3600000000
 Au         0.3090000000        5.7140000000       32.4500000000
 Au         1.7870000000        4.2360000000       34.5400000000
 Au         0.3090000000        5.7140000000       36.6300000000
 Au         4.7430000000        4.2360000000       30.3600000000
 Au         3.2650000000        5.7140000000       32.4500000000
 Au         4.7430000000        4.2360000000       34.5400000000
 Au         3.2650000000        5.7140000000       36.6300000000
 Au         7.6990000000        4.2360000000       30.3600000000
 Au         6.2210000000        5.7140000000       32.4500000000
 Au         7.6990000000        4.2360000000       34.5400000000
 Au         6.2210000000        5.7140000000       36.6300000000
 Au         1.7870000000        7.1920000000       30.3600000000
 Au         0.3090000000        8.6700000000       32.4500000000
 Au         1.7870000000        7.1920000000       34.5400000000
 Au         0.3090000000        8.6700000000       36.6300000000
 Au         4.7430000000        7.1920000000       30.3600000000
 Au         3.2650000000        8.6700000000       32.4500000000
 Au         4.7430000000        7.1920000000       34.5400000000
 Au         3.2650000000        8.6700000000       36.6300000000
 Au         7.6990000000        7.1920000000       30.3600000000
 Au         6.2210000000        8.6700000000       32.4500000000
 Au         7.6990000000        7.1920000000       34.5400000000
 Au         6.2210000000        8.6700000000       36.6300000000
     113
 i =        2, E =     -3690.5611343694
 Au         1.7870000000        1.2810000000        0.0000000000
 Au         0.3090000000        2.7590000000        2.0900000000
 Au         1.7870000000        1.2810000000        4.1800000000
 Au         0.3090000000        2.7590000000        6.2700000000
 Au         4.7430000000        1.2810000000        0.0000000000
 Au         3.2650000000        2.7590000000        2.0900000000
 Au         4.7430000000        1.2810000000        4.1800000000
 Au         3.2650000000        2.7590000000        6.2700000000
 Au         7.6990000000        1.2810000000        0.0000000000
 Au         6.2210000000        2.7590000000        2.0900000000
 Au         7.6990000000        1.2810000000        4.1800000000
 Au         6.2210000000        2.7590000000        6.2700000000
 Au         1.7870000000        4.2360000000        0.0000000000
 Au         0.3090000000        5.7140000000        2.0900000000
 Au         1.7870000000        4.2360000000        4.1800000000
 Au         0.3090000000        5.7140000000        6.2700000000
 Au         4.7430000000        4.2360000000        0.0000000000
 Au         3.2650000000        5.7140000000        2.0900000000
 Au         4.7430000000        4.2360000000        4.1800000000
 Au         3.2650000000        5.7140000000        6.2700000000
 Au         7.6990000000        4.2360000000        0.0000000000
 Au         6.2210000000        5.7140000000        2.0900000000
 Au         7.6990000000        4.2360000000        4.1800000000
 Au         6.2210000000        5.7140000000        6.2700000000
 Au         1.7870000000        7.1920000000        0.0000000000
 Au         0.3090000000        8.6700000000        2.0900000000
 Au         1.7870000000        7.1920000000        4.1800000000
 Au         0.3090000000        8.6700000000        6.2700000000
 Au         4.7430000000        7.1920000000        0.0000000000
 Au         3.2650000000        8.6700000000        2.0900000000
 Au         4.7430000000        7.1920000000        4.1800000000
 Au         3.2650000000        8.6700000000        6.2700000000
 Au         7.6990000000        7.1920000000        0.0000000000
 Au         6.2210000000        8.6700000000        2.0900000000
 Au         7.6990000000        7.1920000000        4.1800000000
 Au         6.2210000000        8.6700000000        6.2700000000
 Au         1.7870000000        1.2810000000        8.3600000000
 Au         1.7870000000        4.2360000000        8.3600000000
 Au         1.7870000000        7.1920000000        8.3600000000
 Au         4.7430000000        1.2810000000        8.3600000000
 Au         4.7430000000        4.2360000000        8.3600000000
 Au         4.7430000000        7.1920000000        8.3600000000
 Au         7.6990000000        1.2810000000        8.3600000000
 Au         7.6990000000        4.2360000000        8.3600000000
 Au         7.6990000000        7.1920000000        8.3600000000
 Au         0.3090000000        2.7590000000       10.4500000000
 Au         0.3090000000        5.7140000000       10.4500000000
 Au         0.3090000000        8.6700000000       10.4500000000
 Au         3.2650000000        2.7590000000       10.4500000000
 Au         3.2650000000        5.7140000000       10.4500000000
 Au         3.2650000000        8.6700000000       10.4500000000
 Au         6.2210000000        2.7590000000       10.4500000000
 Au         6.2210000000        5.7140000000       10.4500000000
 Au         6.2210000000        8.6700000000       10.4500000000
 Au         1.7670000000        4.2150000000       12.4460000000
 Au         1.7660000000        7.2140000000       12.4460000000
 Au         4.7650000000        4.2130000000       12.4460000000
 Au         4.7670000000        7.2140000000       12.4450000000
 Au         3.2675607248        5.7148441983       14.3660753754
 Au         3.2672867549        5.7450377251       17.0911798826
  H         3.2539836631        5.7199994748       18.9279032945
  H         3.2592207660        5.7256824835       19.7971729332
 Au         3.2339905745        5.7123337685       21.6234183621
 Au         3.2626064875        5.7135434504       24.2963306064
 Au         1.7650000000        4.2130000000       26.2750000000
 Au         1.7650000000        7.2140000000       26.2740000000
 Au         4.7650000000        4.2140000000       26.2740000000
 Au         4.7650000000        7.2140000000       26.2750000000
 Au         0.3090000000        2.7590000000       28.2700000000
 Au         0.3090000000        5.7140000000       28.2700000000
 Au         0.3090000000        8.6700000000       28.2700000000
 Au         3.2650000000        2.7590000000       28.2700000000
 Au         3.2650000000        5.7140000000       28.2700000000
 Au         3.2650000000        8.6700000000       28.2700000000
 Au         6.2210000000        2.7590000000       28.2700000000
 Au         6.2210000000        5.7140000000       28.2700000000
 Au         6.2210000000        8.6700000000       28.2700000000
 Au         1.7870000000        1.2810000000       30.3600000000
 Au         0.3090000000        2.7590000000       32.4500000000
 Au         1.7870000000        1.2810000000       34.5400000000
 Au         0.3090000000        2.7590000000       36.6300000000
 Au         4.7430000000        1.2810000000       30.3600000000
 Au         3.2650000000        2.7590000000       32.4500000000
 Au         4.7430000000        1.2810000000       34.5400000000
 Au         3.2650000000        2.7590000000       36.6300000000
 Au         7.6990000000        1.2810000000       30.3600000000
 Au         6.2210000000        2.7590000000       32.4500000000
 Au         7.6990000000        1.2810000000       34.5400000000
 Au         6.2210000000        2.7590000000       36.6300000000
 Au         1.7870000000        4.2360000000       30.3600000000
 Au         0.3090000000        5.7140000000       32.4500000000
 Au         1.7870000000        4.2360000000       34.5400000000
 Au         0.3090000000        5.7140000000       36.6300000000
 Au         4.7430000000        4.2360000000       30.3600000000
 Au         3.2650000000        5.7140000000       32.4500000000
 Au         4.7430000000        4.2360000000       34.5400000000
 Au         3.2650000000        5.7140000000       36.6300000000
 Au         7.6990000000        4.2360000000       30.3600000000
 Au         6.2210000000        5.7140000000       32.4500000000
 Au         7.6990000000        4.2360000000       34.5400000000
 Au         6.2210000000        5.7140000000       36.6300000000
 Au         1.7870000000        7.1920000000       30.3600000000
 Au         0.3090000000        8.6700000000       32.4500000000
 Au         1.7870000000        7.1920000000       34.5400000000
 Au         0.3090000000        8.6700000000       36.6300000000
 Au         4.7430000000        7.1920000000       30.3600000000
 Au         3.2650000000        8.6700000000       32.4500000000
 Au         4.7430000000        7.1920000000       34.5400000000
 Au         3.2650000000        8.6700000000       36.6300000000
 Au         7.6990000000        7.1920000000       30.3600000000
 Au         6.2210000000        8.6700000000       32.4500000000
 Au         7.6990000000        7.1920000000       34.5400000000
 Au         6.2210000000        8.6700000000       36.6300000000
     113
 i =        3, E =     -3690.5599214460
 Au         1.7870000000        1.2810000000        0.0000000000
 Au         0.3090000000        2.7590000000        2.0900000000
 Au         1.7870000000        1.2810000000        4.1800000000
 Au         0.3090000000        2.7590000000        6.2700000000
 Au         4.7430000000        1.2810000000        0.0000000000
 Au         3.2650000000        2.7590000000        2.0900000000
 Au         4.7430000000        1.2810000000        4.1800000000
 Au         3.2650000000        2.7590000000        6.2700000000
 Au         7.6990000000        1.2810000000        0.0000000000
 Au         6.2210000000        2.7590000000        2.0900000000
 Au         7.6990000000        1.2810000000        4.1800000000
 Au         6.2210000000        2.7590000000        6.2700000000
 Au         1.7870000000        4.2360000000        0.0000000000
 Au         0.3090000000        5.7140000000        2.0900000000
 Au         1.7870000000        4.2360000000        4.1800000000
 Au         0.3090000000        5.7140000000        6.2700000000
 Au         4.7430000000        4.2360000000        0.0000000000
 Au         3.2650000000        5.7140000000        2.0900000000
 Au         4.7430000000        4.2360000000        4.1800000000
 Au         3.2650000000        5.7140000000        6.2700000000
 Au         7.6990000000        4.2360000000        0.0000000000
 Au         6.2210000000        5.7140000000        2.0900000000
 Au         7.6990000000        4.2360000000        4.1800000000
 Au         6.2210000000        5.7140000000        6.2700000000
 Au         1.7870000000        7.1920000000        0.0000000000
 Au         0.3090000000        8.6700000000        2.0900000000
 Au         1.7870000000        7.1920000000        4.1800000000
 Au         0.3090000000        8.6700000000        6.2700000000
 Au         4.7430000000        7.1920000000        0.0000000000
 Au         3.2650000000        8.6700000000        2.0900000000
 Au         4.7430000000        7.1920000000        4.1800000000
 Au         3.2650000000        8.6700000000        6.2700000000
 Au         7.6990000000        7.1920000000        0.0000000000
 Au         6.2210000000        8.6700000000        2.0900000000
 Au         7.6990000000        7.1920000000        4.1800000000
 Au         6.2210000000        8.6700000000        6.2700000000
 Au         1.7870000000        1.2810000000        8.3600000000
 Au         1.7870000000        4.2360000000        8.3600000000
 Au         1.7870000000        7.1920000000        8.3600000000
 Au         4.7430000000        1.2810000000        8.3600000000
 Au         4.7430000000        4.2360000000        8.3600000000
 Au         4.7430000000        7.1920000000        8.3600000000
 Au         7.6990000000        1.2810000000        8.3600000000
 Au         7.6990000000        4.2360000000        8.3600000000
 Au         7.6990000000        7.1920000000        8.3600000000
 Au         0.3090000000        2.7590000000       10.4500000000
 Au         0.3090000000        5.7140000000       10.4500000000
 Au         0.3090000000        8.6700000000       10.4500000000
 Au         3.2650000000        2.7590000000       10.4500000000
 Au         3.2650000000        5.7140000000       10.4500000000
 Au         3.2650000000        8.6700000000       10.4500000000
 Au         6.2210000000        2.7590000000       10.4500000000
 Au         6.2210000000        5.7140000000       10.4500000000
 Au         6.2210000000        8.6700000000       10.4500000000
 Au         1.7670000000        4.2150000000       12.4460000000
 Au         1.7660000000        7.2140000000       12.4460000000
 Au         4.7650000000        4.2130000000       12.4460000000
 Au         4.7670000000        7.2140000000       12.4450000000
 Au         3.2671903372        5.7134825654       14.3808698327
 Au         3.2676106703        5.7457494484       17.0936743730
  H         3.2538680586        5.7199253232       18.9134733640
  H         3.2587697769        5.7255958821       19.7958683820
 Au         3.2348430775        5.7125337353       21.5974833292
 Au         3.2614039099        5.7131904328       24.2824513927
 Au         1.7650000000        4.2130000000       26.2750000000
 Au         1.7650000000        7.2140000000       26.2740000000
 Au         4.7650000000        4.2140000000       26.2740000000
 Au         4.7650000000        7.2140000000       26.2750000000
 Au         0.3090000000        2.7590000000       28.2700000000
 Au         0.3090000000        5.7140000000       28.2700000000
 Au         0.3090000000        8.6700000000       28.2700000000
 Au         3.2650000000        2.7590000000       28.2700000000
 Au         3.2650000000        5.7140000000       28.2700000000
 Au         3.2650000000        8.6700000000       28.2700000000
 Au         6.2210000000        2.7590000000       28.2700000000
 Au         6.2210000000        5.7140000000       28.2700000000
 Au         6.2210000000        8.6700000000       28.2700000000
 Au         1.7870000000        1.2810000000       30.3600000000
 Au         0.3090000000        2.7590000000       32.4500000000
 Au         1.7870000000        1.2810000000       34.5400000000
 Au         0.3090000000        2.7590000000       36.6300000000
 Au         4.7430000000        1.2810000000       30.3600000000
 Au         3.2650000000        2.7590000000       32.4500000000
 Au         4.7430000000        1.2810000000       34.5400000000
 Au         3.2650000000        2.7590000000       36.6300000000
 Au         7.6990000000        1.2810000000       30.3600000000
 Au         6.2210000000        2.7590000000       32.4500000000
 Au         7.6990000000        1.2810000000       34.5400000000
 Au         6.2210000000        2.7590000000       36.6300000000
 Au         1.7870000000        4.2360000000       30.3600000000
 Au         0.3090000000        5.7140000000       32.4500000000
 Au         1.7870000000        4.2360000000       34.5400000000
 Au         0.3090000000        5.7140000000       36.6300000000
 Au         4.7430000000        4.2360000000       30.3600000000
 Au         3.2650000000        5.7140000000       32.4500000000
 Au         4.7430000000        4.2360000000       34.5400000000
 Au         3.2650000000        5.7140000000       36.6300000000
 Au         7.6990000000        4.2360000000       30.3600000000
 Au         6.2210000000        5.7140000000       32.4500000000
 Au         7.6990000000        4.2360000000       34.5400000000
 Au         6.2210000000        5.7140000000       36.6300000000
 Au         1.7870000000        7.1920000000       30.3600000000
 Au         0.3090000000        8.6700000000       32.4500000000
 Au         1.7870000000        7.1920000000       34.5400000000
 Au         0.3090000000        8.6700000000       36.6300000000
 Au         4.7430000000        7.1920000000       30.3600000000
 Au         3.2650000000        8.6700000000       32.4500000000
 Au         4.7430000000        7.1920000000       34.5400000000
 Au         3.2650000000        8.6700000000       36.6300000000
 Au         7.6990000000        7.1920000000       30.3600000000
 Au         6.2210000000        8.6700000000       32.4500000000
 Au         7.6990000000        7.1920000000       34.5400000000
 Au         6.2210000000        8.6700000000       36.6300000000
     113
 i =        4, E =     -3690.5596045468
 Au         1.7870000000        1.2810000000        0.0000000000
 Au         0.3090000000        2.7590000000        2.0900000000
 Au         1.7870000000        1.2810000000        4.1800000000
 Au         0.3090000000        2.7590000000        6.2700000000
 Au         4.7430000000        1.2810000000        0.0000000000
 Au         3.2650000000        2.7590000000        2.0900000000
 Au         4.7430000000        1.2810000000        4.1800000000
 Au         3.2650000000        2.7590000000        6.2700000000
 Au         7.6990000000        1.2810000000        0.0000000000
 Au         6.2210000000        2.7590000000        2.0900000000
 Au         7.6990000000        1.2810000000        4.1800000000
 Au         6.2210000000        2.7590000000        6.2700000000
 Au         1.7870000000        4.2360000000        0.0000000000
 Au         0.3090000000        5.7140000000        2.0900000000
 Au         1.7870000000        4.2360000000        4.1800000000
 Au         0.3090000000        5.7140000000        6.2700000000
 Au         4.7430000000        4.2360000000        0.0000000000
 Au         3.2650000000        5.7140000000        2.0900000000
 Au         4.7430000000        4.2360000000        4.1800000000
 Au         3.2650000000        5.7140000000        6.2700000000
 Au         7.6990000000        4.2360000000        0.0000000000
 Au         6.2210000000        5.7140000000        2.0900000000
 Au         7.6990000000        4.2360000000        4.1800000000
 Au         6.2210000000        5.7140000000        6.2700000000
 Au         1.7870000000        7.1920000000        0.0000000000
 Au         0.3090000000        8.6700000000        2.0900000000
 Au         1.7870000000        7.1920000000        4.1800000000
 Au         0.3090000000        8.6700000000        6.2700000000
 Au         4.7430000000        7.1920000000        0.0000000000
 Au         3.2650000000        8.6700000000        2.0900000000
 Au         4.7430000000        7.1920000000        4.1800000000
 Au         3.2650000000        8.6700000000        6.2700000000
 Au         7.6990000000        7.1920000000        0.0000000000
 Au         6.2210000000        8.6700000000        2.0900000000
 Au         7.6990000000        7.1920000000        4.1800000000
 Au         6.2210000000        8.6700000000        6.2700000000
 Au         1.7870000000        1.2810000000        8.3600000000
 Au         1.7870000000        4.2360000000        8.3600000000
 Au         1.7870000000        7.1920000000        8.3600000000
 Au         4.7430000000        1.2810000000        8.3600000000
 Au         4.7430000000        4.2360000000        8.3600000000
 Au         4.7430000000        7.1920000000        8.3600000000
 Au         7.6990000000        1.2810000000        8.3600000000
 Au         7.6990000000        4.2360000000        8.3600000000
 Au         7.6990000000        7.1920000000        8.3600000000
 Au         0.3090000000        2.7590000000       10.4500000000
 Au         0.3090000000        5.7140000000       10.4500000000
 Au         0.3090000000        8.6700000000       10.4500000000
 Au         3.2650000000        2.7590000000       10.4500000000
 Au         3.2650000000        5.7140000000       10.4500000000
 Au         3.2650000000        8.6700000000       10.4500000000
 Au         6.2210000000        2.7590000000       10.4500000000
 Au         6.2210000000        5.7140000000       10.4500000000
 Au         6.2210000000        8.6700000000       10.4500000000
 Au         1.7670000000        4.2150000000       12.4460000000
 Au         1.7660000000        7.2140000000       12.4460000000
 Au         4.7650000000        4.2130000000       12.4460000000
 Au         4.7670000000        7.2140000000       12.4450000000
 Au         3.2669879251        5.7127744856       14.3801072340
 Au         3.2678831988        5.7463982362       17.0968136791
  H         3.2537467197        5.7197985751       18.9024654853
  H         3.2585809062        5.7256273396       19.7897107983
 Au         3.2353852561        5.7126130460       21.5916414297
 Au         3.2607679374        5.7130245556       24.2763950870
 Au         1.7650000000        4.2130000000       26.2750000000
 Au         1.7650000000        7.2140000000       26.2740000000
 Au         4.7650000000        4.2140000000       26.2740000000
 Au         4.7650000000        7.2140000000       26.2750000000
 Au         0.3090000000        2.7590000000       28.2700000000
 Au         0.3090000000        5.7140000000       28.2700000000
 Au         0.3090000000        8.6700000000       28.2700000000
 Au         3.2650000000        2.7590000000       28.2700000000
 Au         3.2650000000        5.7140000000       28.2700000000
 Au         3.2650000000        8.6700000000       28.2700000000
 Au         6.2210000000        2.7590000000       28.2700000000
 Au         6.2210000000        5.7140000000       28.2700000000
 Au         6.2210000000        8.6700000000       28.2700000000
 Au         1.7870000000        1.2810000000       30.3600000000
 Au         0.3090000000        2.7590000000       32.4500000000
 Au         1.7870000000        1.2810000000       34.5400000000
 Au         0.3090000000        2.7590000000       36.6300000000
 Au         4.7430000000        1.2810000000       30.3600000000
 Au         3.2650000000        2.7590000000       32.4500000000
 Au         4.7430000000        1.2810000000       34.5400000000
 Au         3.2650000000        2.7590000000       36.6300000000
 Au         7.6990000000        1.2810000000       30.3600000000
 Au         6.2210000000        2.7590000000       32.4500000000
 Au         7.6990000000        1.2810000000       34.5400000000
 Au         6.2210000000        2.7590000000       36.6300000000
 Au         1.7870000000        4.2360000000       30.3600000000
 Au         0.3090000000        5.7140000000       32.4500000000
 Au         1.7870000000        4.2360000000       34.5400000000
 Au         0.3090000000        5.7140000000       36.6300000000
 Au         4.7430000000        4.2360000000       30.3600000000
 Au         3.2650000000        5.7140000000       32.4500000000
 Au         4.7430000000        4.2360000000       34.5400000000
 Au         3.2650000000        5.7140000000       36.6300000000
 Au         7.6990000000        4.2360000000       30.3600000000
 Au         6.2210000000        5.7140000000       32.4500000000
 Au         7.6990000000        4.2360000000       34.5400000000
 Au         6.2210000000        5.7140000000       36.6300000000
 Au         1.7870000000        7.1920000000       30.3600000000
 Au         0.3090000000        8.6700000000       32.4500000000
 Au         1.7870000000        7.1920000000       34.5400000000
 Au         0.3090000000        8.6700000000       36.6300000000
 Au         4.7430000000        7.1920000000       30.3600000000
 Au         3.2650000000        8.6700000000       32.4500000000
 Au         4.7430000000        7.1920000000       34.5400000000
 Au         3.2650000000        8.6700000000       36.6300000000
 Au         7.6990000000        7.1920000000       30.3600000000
 Au         6.2210000000        8.6700000000       32.4500000000
 Au         7.6990000000        7.1920000000       34.5400000000
 Au         6.2210000000        8.6700000000       36.6300000000
