     116
 i =       10, E =     -3518.3448196694
 Au         0.0000000000        0.0000000000        0.0000000000
 Au         0.0000000000        4.1460000000        0.0000000000
 Au         2.0730000000        2.0730000000        0.0000000000
 Au         2.0730000000        6.2190000000        0.0000000000
 Au         4.1460000000        0.0000000000        0.0000000000
 Au         4.1460000000        4.1460000000        0.0000000000
 Au         6.2190000000        2.0730000000        0.0000000000
 Au         6.2190000000        6.2190000000        0.0000000000
 Au         0.0000000000        2.0730000000        2.0730000000
 Au         0.0000000000        6.2190000000        2.0730000000
 Au         2.0730000000        0.0000000000        2.0730000000
 Au         2.0730000000        4.1460000000        2.0730000000
 Au         4.1460000000        2.0730000000        2.0730000000
 Au         4.1460000000        6.2190000000        2.0730000000
 Au         6.2190000000        0.0000000000        2.0730000000
 Au         6.2190000000        4.1460000000        2.0730000000
 Au         0.0000000000        0.0000000000        4.1460000000
 Au         0.0000000000        4.1460000000        4.1460000000
 Au         2.0730000000        2.0730000000        4.1460000000
 Au         2.0730000000        6.2190000000        4.1460000000
 Au         4.1460000000        0.0000000000        4.1460000000
 Au         4.1460000000        4.1460000000        4.1460000000
 Au         6.2190000000        2.0730000000        4.1460000000
 Au         6.2190000000        6.2190000000        4.1460000000
 Au         0.0000000000        2.0730000000        6.2190000000
 Au         0.0000000000        6.2190000000        6.2190000000
 Au         2.0730000000        0.0000000000        6.2190000000
 Au         2.0730000000        4.1460000000        6.2190000000
 Au         4.1460000000        2.0730000000        6.2190000000
 Au         4.1460000000        6.2190000000        6.2190000000
 Au         6.2190000000        0.0000000000        6.2190000000
 Au         6.2190000000        4.1460000000        6.2190000000
 Au         0.0000000000        0.0000000000        8.2920000000
 Au         0.0000000000        4.1460000000        8.2920000000
 Au         2.0730000000        2.0730000000        8.2920000000
 Au         2.0730000000        6.2190000000        8.2920000000
 Au         4.1460000000        0.0000000000        8.2920000000
 Au         4.1460000000        4.1460000000        8.2920000000
 Au         6.2190000000        2.0730000000        8.2920000000
 Au         6.2190000000        6.2190000000        8.2920000000
 Au        -0.0000569400        2.0731713506       10.3741757158
 Au        -0.0000350044        6.2180871743       10.3340514428
 Au         2.0841943058        0.0238948903       10.3841574090
 Au         2.0852071631        4.1212473178       10.3866640145
 Au         4.1459269543        2.0734583143       10.3559737763
 Au         4.1460541914        6.2188265679       10.3432381632
 Au         6.2079254095        0.0237963443       10.3842209748
 Au         6.2068976463        4.1213377623       10.3867444771
 Au        -0.0001964529       -0.0539576912       12.4682661766
 Au        -0.0001801222        4.1991753737       12.4670718869
 Au         1.9031683610        2.0693354247       12.5126149527
 Au         2.0056225829        6.2214921756       12.4520309931
 Au         4.1465875577       -0.1752278313       12.4582700156
 Au         4.1465724195        4.3311709321       12.4625215727
 Au         6.3887640633        2.0693361928       12.5131432720
 Au         6.2863973283        6.2214937149       12.4534412157
  S         4.1448682988        2.0882808837       13.7865936900
  C         4.1431933985        2.0828003595       15.5365173599
  H         1.9954622261        2.0805431576       15.6566842622
  H         6.2909160932        2.0804162795       15.6620290504
  C         2.9303620387        2.0776025650       16.2216589153
  C         5.3545215216        2.0775234060       16.2243674876
  C         2.9285527817        2.0682947180       17.6007662988
  C         5.3528930886        2.0682062933       17.6034690219
  H         1.9924243736        2.0647157945       18.1629232380
  H         6.2873010372        2.0645581574       18.1683746237
  C         4.1399948144        2.0635718474       18.2886659613
  S         4.1394525186        2.0595807957       20.0387329611
 Au        -0.0168920469       -0.0584376096       21.3627323134
 Au        -0.0182984158        4.2059385214       21.3607700814
 Au         1.8888382901        2.0764074736       21.3438195794
 Au         2.0003634538        6.2162288023       21.3580121028
 Au         4.1144924374       -0.1542310924       21.3807245329
 Au         4.1168122597        4.2923460037       21.3832422181
 Au         6.3763212529        2.0757111619       21.3512864632
 Au         6.2190000000        6.2190000000       21.3960000000
 Au         0.0000000000        2.0730000000       23.4690000000
 Au         0.0000000000        6.2190000000       23.4690000000
 Au         2.0730000000        0.0000000000       23.4690000000
 Au         2.0730000000        4.1460000000       23.4690000000
 Au         4.1460000000        2.0730000000       23.4690000000
 Au         4.1460000000        6.2190000000       23.4690000000
 Au         6.2190000000        0.0000000000       23.4690000000
 Au         6.2190000000        4.1460000000       23.4690000000
 Au         0.0000000000        0.0000000000       25.5420000000
 Au         0.0000000000        4.1460000000       25.5420000000
 Au         2.0730000000        2.0730000000       25.5420000000
 Au         2.0730000000        6.2190000000       25.5420000000
 Au         4.1460000000        0.0000000000       25.5420000000
 Au         4.1460000000        4.1460000000       25.5420000000
 Au         6.2190000000        2.0730000000       25.5420000000
 Au         6.2190000000        6.2190000000       25.5420000000
 Au         0.0000000000        2.0730000000       27.6150000000
 Au         0.0000000000        6.2190000000       27.6150000000
 Au         2.0730000000        0.0000000000       27.6150000000
 Au         2.0730000000        4.1460000000       27.6150000000
 Au         4.1460000000        2.0730000000       27.6150000000
 Au         4.1460000000        6.2190000000       27.6150000000
 Au         6.2190000000        0.0000000000       27.6150000000
 Au         6.2190000000        4.1460000000       27.6150000000
 Au         0.0000000000        0.0000000000       29.6880000000
 Au         0.0000000000        4.1460000000       29.6880000000
 Au         2.0730000000        2.0730000000       29.6880000000
 Au         2.0730000000        6.2190000000       29.6880000000
 Au         4.1460000000        0.0000000000       29.6880000000
 Au         4.1460000000        4.1460000000       29.6880000000
 Au         6.2190000000        2.0730000000       29.6880000000
 Au         6.2190000000        6.2190000000       29.6880000000
 Au         0.0000000000        2.0730000000       31.7610000000
 Au         0.0000000000        6.2190000000       31.7610000000
 Au         2.0730000000        0.0000000000       31.7610000000
 Au         2.0730000000        4.1460000000       31.7610000000
 Au         4.1460000000        2.0730000000       31.7610000000
 Au         4.1460000000        6.2190000000       31.7610000000
 Au         6.2190000000        0.0000000000       31.7610000000
 Au         6.2190000000        4.1460000000       31.7610000000
     116
 i =       11, E =     -3518.3448203112
 Au         0.0000000000        0.0000000000        0.0000000000
 Au         0.0000000000        4.1460000000        0.0000000000
 Au         2.0730000000        2.0730000000        0.0000000000
 Au         2.0730000000        6.2190000000        0.0000000000
 Au         4.1460000000        0.0000000000        0.0000000000
 Au         4.1460000000        4.1460000000        0.0000000000
 Au         6.2190000000        2.0730000000        0.0000000000
 Au         6.2190000000        6.2190000000        0.0000000000
 Au         0.0000000000        2.0730000000        2.0730000000
 Au         0.0000000000        6.2190000000        2.0730000000
 Au         2.0730000000        0.0000000000        2.0730000000
 Au         2.0730000000        4.1460000000        2.0730000000
 Au         4.1460000000        2.0730000000        2.0730000000
 Au         4.1460000000        6.2190000000        2.0730000000
 Au         6.2190000000        0.0000000000        2.0730000000
 Au         6.2190000000        4.1460000000        2.0730000000
 Au         0.0000000000        0.0000000000        4.1460000000
 Au         0.0000000000        4.1460000000        4.1460000000
 Au         2.0730000000        2.0730000000        4.1460000000
 Au         2.0730000000        6.2190000000        4.1460000000
 Au         4.1460000000        0.0000000000        4.1460000000
 Au         4.1460000000        4.1460000000        4.1460000000
 Au         6.2190000000        2.0730000000        4.1460000000
 Au         6.2190000000        6.2190000000        4.1460000000
 Au         0.0000000000        2.0730000000        6.2190000000
 Au         0.0000000000        6.2190000000        6.2190000000
 Au         2.0730000000        0.0000000000        6.2190000000
 Au         2.0730000000        4.1460000000        6.2190000000
 Au         4.1460000000        2.0730000000        6.2190000000
 Au         4.1460000000        6.2190000000        6.2190000000
 Au         6.2190000000        0.0000000000        6.2190000000
 Au         6.2190000000        4.1460000000        6.2190000000
 Au         0.0000000000        0.0000000000        8.2920000000
 Au         0.0000000000        4.1460000000        8.2920000000
 Au         2.0730000000        2.0730000000        8.2920000000
 Au         2.0730000000        6.2190000000        8.2920000000
 Au         4.1460000000        0.0000000000        8.2920000000
 Au         4.1460000000        4.1460000000        8.2920000000
 Au         6.2190000000        2.0730000000        8.2920000000
 Au         6.2190000000        6.2190000000        8.2920000000
 Au        -0.0000586499        2.0732177031       10.3742495541
 Au        -0.0000323938        6.2180206277       10.3338417737
 Au         2.0840300341        0.0238183987       10.3841090252
 Au         2.0851230760        4.1212934412       10.3867007663
 Au         4.1459342497        2.0734509214       10.3561719404
 Au         4.1460706882        6.2188205276       10.3432760976
 Au         6.2081063906        0.0237093978       10.3841694617
 Au         6.2069967024        4.1213938949       10.3867792007
 Au        -0.0001992601       -0.0542153532       12.4683955082
 Au        -0.0001838171        4.1993854872       12.4672591400
 Au         1.9029716064        2.0692880161       12.5126420979
 Au         2.0055463015        6.2215109581       12.4520249843
 Au         4.1466207904       -0.1750540269       12.4579964691
 Au         4.1466049120        4.3311084591       12.4624631234
 Au         6.3889068367        2.0692853959       12.5131600716
 Au         6.2865154125        6.2215114109       12.4534709700
  S         4.1447594870        2.0883283631       13.7860621818
  C         4.1431877544        2.0825266679       15.5363881827
  H         1.9954439004        2.0805698049       15.6566356284
  H         6.2909115632        2.0804397002       15.6617735219
  C         2.9303287597        2.0778769863       16.2218002347
  C         5.3545604898        2.0778027449       16.2244457445
  C         2.9284887371        2.0681574053       17.6007199633
  C         5.3530851215        2.0680701808       17.6033908715
  H         1.9922800113        2.0647718829       18.1631618280
  H         6.2877556012        2.0646106978       18.1684189141
  C         4.1400257370        2.0639878064       18.2885149349
  S         4.1391777947        2.0598517526       20.0385200620
 Au        -0.0170275755       -0.0582697309       21.3630651741
 Au        -0.0184484599        4.2057135277       21.3611017771
 Au         1.8894451608        2.0763912051       21.3439328625
 Au         2.0003982205        6.2162658606       21.3582550075
 Au         4.1146411372       -0.1541971023       21.3805087966
 Au         4.1169626791        4.2924508536       21.3829033905
 Au         6.3762373400        2.0756061966       21.3515550280
 Au         6.2190000000        6.2190000000       21.3960000000
 Au         0.0000000000        2.0730000000       23.4690000000
 Au         0.0000000000        6.2190000000       23.4690000000
 Au         2.0730000000        0.0000000000       23.4690000000
 Au         2.0730000000        4.1460000000       23.4690000000
 Au         4.1460000000        2.0730000000       23.4690000000
 Au         4.1460000000        6.2190000000       23.4690000000
 Au         6.2190000000        0.0000000000       23.4690000000
 Au         6.2190000000        4.1460000000       23.4690000000
 Au         0.0000000000        0.0000000000       25.5420000000
 Au         0.0000000000        4.1460000000       25.5420000000
 Au         2.0730000000        2.0730000000       25.5420000000
 Au         2.0730000000        6.2190000000       25.5420000000
 Au         4.1460000000        0.0000000000       25.5420000000
 Au         4.1460000000        4.1460000000       25.5420000000
 Au         6.2190000000        2.0730000000       25.5420000000
 Au         6.2190000000        6.2190000000       25.5420000000
 Au         0.0000000000        2.0730000000       27.6150000000
 Au         0.0000000000        6.2190000000       27.6150000000
 Au         2.0730000000        0.0000000000       27.6150000000
 Au         2.0730000000        4.1460000000       27.6150000000
 Au         4.1460000000        2.0730000000       27.6150000000
 Au         4.1460000000        6.2190000000       27.6150000000
 Au         6.2190000000        0.0000000000       27.6150000000
 Au         6.2190000000        4.1460000000       27.6150000000
 Au         0.0000000000        0.0000000000       29.6880000000
 Au         0.0000000000        4.1460000000       29.6880000000
 Au         2.0730000000        2.0730000000       29.6880000000
 Au         2.0730000000        6.2190000000       29.6880000000
 Au         4.1460000000        0.0000000000       29.6880000000
 Au         4.1460000000        4.1460000000       29.6880000000
 Au         6.2190000000        2.0730000000       29.6880000000
 Au         6.2190000000        6.2190000000       29.6880000000
 Au         0.0000000000        2.0730000000       31.7610000000
 Au         0.0000000000        6.2190000000       31.7610000000
 Au         2.0730000000        0.0000000000       31.7610000000
 Au         2.0730000000        4.1460000000       31.7610000000
 Au         4.1460000000        2.0730000000       31.7610000000
 Au         4.1460000000        6.2190000000       31.7610000000
 Au         6.2190000000        0.0000000000       31.7610000000
 Au         6.2190000000        4.1460000000       31.7610000000
     116
 i =       12, E =     -3518.3448206227
 Au         0.0000000000        0.0000000000        0.0000000000
 Au         0.0000000000        4.1460000000        0.0000000000
 Au         2.0730000000        2.0730000000        0.0000000000
 Au         2.0730000000        6.2190000000        0.0000000000
 Au         4.1460000000        0.0000000000        0.0000000000
 Au         4.1460000000        4.1460000000        0.0000000000
 Au         6.2190000000        2.0730000000        0.0000000000
 Au         6.2190000000        6.2190000000        0.0000000000
 Au         0.0000000000        2.0730000000        2.0730000000
 Au         0.0000000000        6.2190000000        2.0730000000
 Au         2.0730000000        0.0000000000        2.0730000000
 Au         2.0730000000        4.1460000000        2.0730000000
 Au         4.1460000000        2.0730000000        2.0730000000
 Au         4.1460000000        6.2190000000        2.0730000000
 Au         6.2190000000        0.0000000000        2.0730000000
 Au         6.2190000000        4.1460000000        2.0730000000
 Au         0.0000000000        0.0000000000        4.1460000000
 Au         0.0000000000        4.1460000000        4.1460000000
 Au         2.0730000000        2.0730000000        4.1460000000
 Au         2.0730000000        6.2190000000        4.1460000000
 Au         4.1460000000        0.0000000000        4.1460000000
 Au         4.1460000000        4.1460000000        4.1460000000
 Au         6.2190000000        2.0730000000        4.1460000000
 Au         6.2190000000        6.2190000000        4.1460000000
 Au         0.0000000000        2.0730000000        6.2190000000
 Au         0.0000000000        6.2190000000        6.2190000000
 Au         2.0730000000        0.0000000000        6.2190000000
 Au         2.0730000000        4.1460000000        6.2190000000
 Au         4.1460000000        2.0730000000        6.2190000000
 Au         4.1460000000        6.2190000000        6.2190000000
 Au         6.2190000000        0.0000000000        6.2190000000
 Au         6.2190000000        4.1460000000        6.2190000000
 Au         0.0000000000        0.0000000000        8.2920000000
 Au         0.0000000000        4.1460000000        8.2920000000
 Au         2.0730000000        2.0730000000        8.2920000000
 Au         2.0730000000        6.2190000000        8.2920000000
 Au         4.1460000000        0.0000000000        8.2920000000
 Au         4.1460000000        4.1460000000        8.2920000000
 Au         6.2190000000        2.0730000000        8.2920000000
 Au         6.2190000000        6.2190000000        8.2920000000
 Au        -0.0000586555        2.0732520996       10.3743061303
 Au        -0.0000289286        6.2179687921       10.3337054972
 Au         2.0839175218        0.0237731019       10.3840685378
 Au         2.0850734262        4.1213151581       10.3867282851
 Au         4.1459397741        2.0734457892       10.3562738067
 Au         4.1460824637        6.2188136028       10.3433082239
 Au         6.2082331897        0.0236558561       10.3841249421
 Au         6.2070593559        4.1214234228       10.3868035564
 Au        -0.0002011596       -0.0543834508       12.4684982375
 Au        -0.0001865131        4.1995193692       12.4674075997
 Au         1.9027847338        2.0692492794       12.5126575928
 Au         2.0055224224        6.2215234860       12.4520220273
 Au         4.1466480580       -0.1749455843       12.4577736558
 Au         4.1466317561        4.3310979600       12.4624038577
 Au         6.3890444878        2.0692441065       12.5131661471
 Au         6.2865710373        6.2215230913       12.4534947187
  S         4.1446824387        2.0883395777       13.7860072421
  C         4.1431691650        2.0825260273       15.5362652100
  H         1.9955273586        2.0806104707       15.6566674346
  H         6.2907920463        2.0804783910       15.6616597651
  C         2.9301632786        2.0778907342       16.2216067578
  C         5.3547424872        2.0778181569       16.2242436000
  C         2.9285508610        2.0682482253       17.6007365007
  C         5.3531284622        2.0681620058       17.6034038912
  H         1.9922515121        2.0648032339       18.1632893265
  H         6.2879514859        2.0646395765       18.1683750347
  C         4.1400953183        2.0641286672       18.2884409042
  S         4.1390352538        2.0600858594       20.0384075800
 Au        -0.0170915504       -0.0581446809       21.3633064741
 Au        -0.0185244929        4.2055469021       21.3613454732
 Au         1.8898505838        2.0763735666       21.3440425803
 Au         2.0004141373        6.2162936166       21.3584389327
 Au         4.1147652749       -0.1541792116       21.3803533594
 Au         4.1170851975        4.2925495731       21.3826551498
 Au         6.3761168705        2.0755224797       21.3517394622
 Au         6.2190000000        6.2190000000       21.3960000000
 Au         0.0000000000        2.0730000000       23.4690000000
 Au         0.0000000000        6.2190000000       23.4690000000
 Au         2.0730000000        0.0000000000       23.4690000000
 Au         2.0730000000        4.1460000000       23.4690000000
 Au         4.1460000000        2.0730000000       23.4690000000
 Au         4.1460000000        6.2190000000       23.4690000000
 Au         6.2190000000        0.0000000000       23.4690000000
 Au         6.2190000000        4.1460000000       23.4690000000
 Au         0.0000000000        0.0000000000       25.5420000000
 Au         0.0000000000        4.1460000000       25.5420000000
 Au         2.0730000000        2.0730000000       25.5420000000
 Au         2.0730000000        6.2190000000       25.5420000000
 Au         4.1460000000        0.0000000000       25.5420000000
 Au         4.1460000000        4.1460000000       25.5420000000
 Au         6.2190000000        2.0730000000       25.5420000000
 Au         6.2190000000        6.2190000000       25.5420000000
 Au         0.0000000000        2.0730000000       27.6150000000
 Au         0.0000000000        6.2190000000       27.6150000000
 Au         2.0730000000        0.0000000000       27.6150000000
 Au         2.0730000000        4.1460000000       27.6150000000
 Au         4.1460000000        2.0730000000       27.6150000000
 Au         4.1460000000        6.2190000000       27.6150000000
 Au         6.2190000000        0.0000000000       27.6150000000
 Au         6.2190000000        4.1460000000       27.6150000000
 Au         0.0000000000        0.0000000000       29.6880000000
 Au         0.0000000000        4.1460000000       29.6880000000
 Au         2.0730000000        2.0730000000       29.6880000000
 Au         2.0730000000        6.2190000000       29.6880000000
 Au         4.1460000000        0.0000000000       29.6880000000
 Au         4.1460000000        4.1460000000       29.6880000000
 Au         6.2190000000        2.0730000000       29.6880000000
 Au         6.2190000000        6.2190000000       29.6880000000
 Au         0.0000000000        2.0730000000       31.7610000000
 Au         0.0000000000        6.2190000000       31.7610000000
 Au         2.0730000000        0.0000000000       31.7610000000
 Au         2.0730000000        4.1460000000       31.7610000000
 Au         4.1460000000        2.0730000000       31.7610000000
 Au         4.1460000000        6.2190000000       31.7610000000
 Au         6.2190000000        0.0000000000       31.7610000000
 Au         6.2190000000        4.1460000000       31.7610000000
     116
 i =       13, E =     -3518.3448213162
 Au         0.0000000000        0.0000000000        0.0000000000
 Au         0.0000000000        4.1460000000        0.0000000000
 Au         2.0730000000        2.0730000000        0.0000000000
 Au         2.0730000000        6.2190000000        0.0000000000
 Au         4.1460000000        0.0000000000        0.0000000000
 Au         4.1460000000        4.1460000000        0.0000000000
 Au         6.2190000000        2.0730000000        0.0000000000
 Au         6.2190000000        6.2190000000        0.0000000000
 Au         0.0000000000        2.0730000000        2.0730000000
 Au         0.0000000000        6.2190000000        2.0730000000
 Au         2.0730000000        0.0000000000        2.0730000000
 Au         2.0730000000        4.1460000000        2.0730000000
 Au         4.1460000000        2.0730000000        2.0730000000
 Au         4.1460000000        6.2190000000        2.0730000000
 Au         6.2190000000        0.0000000000        2.0730000000
 Au         6.2190000000        4.1460000000        2.0730000000
 Au         0.0000000000        0.0000000000        4.1460000000
 Au         0.0000000000        4.1460000000        4.1460000000
 Au         2.0730000000        2.0730000000        4.1460000000
 Au         2.0730000000        6.2190000000        4.1460000000
 Au         4.1460000000        0.0000000000        4.1460000000
 Au         4.1460000000        4.1460000000        4.1460000000
 Au         6.2190000000        2.0730000000        4.1460000000
 Au         6.2190000000        6.2190000000        4.1460000000
 Au         0.0000000000        2.0730000000        6.2190000000
 Au         0.0000000000        6.2190000000        6.2190000000
 Au         2.0730000000        0.0000000000        6.2190000000
 Au         2.0730000000        4.1460000000        6.2190000000
 Au         4.1460000000        2.0730000000        6.2190000000
 Au         4.1460000000        6.2190000000        6.2190000000
 Au         6.2190000000        0.0000000000        6.2190000000
 Au         6.2190000000        4.1460000000        6.2190000000
 Au         0.0000000000        0.0000000000        8.2920000000
 Au         0.0000000000        4.1460000000        8.2920000000
 Au         2.0730000000        2.0730000000        8.2920000000
 Au         2.0730000000        6.2190000000        8.2920000000
 Au         4.1460000000        0.0000000000        8.2920000000
 Au         4.1460000000        4.1460000000        8.2920000000
 Au         6.2190000000        2.0730000000        8.2920000000
 Au         6.2190000000        6.2190000000        8.2920000000
 Au        -0.0000569092        2.0733426438       10.3744450885
 Au        -0.0000165892        6.2178278761       10.3333967005
 Au         2.0836426746        0.0236781966       10.3839552517
 Au         2.0849693767        4.1213455275       10.3868025176
 Au         4.1459542368        2.0734325356       10.3564667035
 Au         4.1461122987        6.2187911277       10.3433836237
 Au         6.2085500857        0.0235382635       10.3839970338
 Au         6.2072020806        4.1214750767       10.3868655389
 Au        -0.0002062862       -0.0547885144       12.4687807524
 Au        -0.0001939864        4.1998347902       12.4678164277
 Au         1.9022498565        2.0691418998       12.5127004098
 Au         2.0055176423        6.2215547906       12.4520180481
 Au         4.1467247187       -0.1746770333       12.4571587048
 Au         4.1467075921        4.3311051383       12.4622306398
 Au         6.3894329138        2.0691299748       12.5131799414
 Au         6.2866611929        6.2215521455       12.4535608854
  S         4.1444908370        2.0883475554       13.7861604813
  C         4.1431514720        2.0827605574       15.5360628608
  H         1.9954306933        2.0807385995       15.6565662124
  H         6.2907463692        2.0806019036       15.6612093396
  C         2.9302931921        2.0777176332       16.2214363201
  C         5.3546314044        2.0776466166       16.2240024986
  C         2.9285530350        2.0687077130       17.6004583974
  C         5.3534310245        2.0686241460       17.6030804949
  H         1.9924551420        2.0648876740       18.1634749316
  H         6.2881635485        2.0647176533       18.1681146474
  C         4.1402548290        2.0643238749       18.2882973378
  S         4.1387881446        2.0607471788       20.0382091981
 Au        -0.0171883066       -0.0578166481       21.3639234695
 Au        -0.0186558937        4.2051105900       21.3619767699
 Au         1.8908202167        2.0763145158       21.3443828418
 Au         2.0004414205        6.2163675500       21.3589246481
 Au         4.1151133383       -0.1541468037       21.3799575158
 Au         4.1174224759        4.2928602183       21.3820161794
 Au         6.3756943751        2.0752908552       21.3521951781
 Au         6.2190000000        6.2190000000       21.3960000000
 Au         0.0000000000        2.0730000000       23.4690000000
 Au         0.0000000000        6.2190000000       23.4690000000
 Au         2.0730000000        0.0000000000       23.4690000000
 Au         2.0730000000        4.1460000000       23.4690000000
 Au         4.1460000000        2.0730000000       23.4690000000
 Au         4.1460000000        6.2190000000       23.4690000000
 Au         6.2190000000        0.0000000000       23.4690000000
 Au         6.2190000000        4.1460000000       23.4690000000
 Au         0.0000000000        0.0000000000       25.5420000000
 Au         0.0000000000        4.1460000000       25.5420000000
 Au         2.0730000000        2.0730000000       25.5420000000
 Au         2.0730000000        6.2190000000       25.5420000000
 Au         4.1460000000        0.0000000000       25.5420000000
 Au         4.1460000000        4.1460000000       25.5420000000
 Au         6.2190000000        2.0730000000       25.5420000000
 Au         6.2190000000        6.2190000000       25.5420000000
 Au         0.0000000000        2.0730000000       27.6150000000
 Au         0.0000000000        6.2190000000       27.6150000000
 Au         2.0730000000        0.0000000000       27.6150000000
 Au         2.0730000000        4.1460000000       27.6150000000
 Au         4.1460000000        2.0730000000       27.6150000000
 Au         4.1460000000        6.2190000000       27.6150000000
 Au         6.2190000000        0.0000000000       27.6150000000
 Au         6.2190000000        4.1460000000       27.6150000000
 Au         0.0000000000        0.0000000000       29.6880000000
 Au         0.0000000000        4.1460000000       29.6880000000
 Au         2.0730000000        2.0730000000       29.6880000000
 Au         2.0730000000        6.2190000000       29.6880000000
 Au         4.1460000000        0.0000000000       29.6880000000
 Au         4.1460000000        4.1460000000       29.6880000000
 Au         6.2190000000        2.0730000000       29.6880000000
 Au         6.2190000000        6.2190000000       29.6880000000
 Au         0.0000000000        2.0730000000       31.7610000000
 Au         0.0000000000        6.2190000000       31.7610000000
 Au         2.0730000000        0.0000000000       31.7610000000
 Au         2.0730000000        4.1460000000       31.7610000000
 Au         4.1460000000        2.0730000000       31.7610000000
 Au         4.1460000000        6.2190000000       31.7610000000
 Au         6.2190000000        0.0000000000       31.7610000000
 Au         6.2190000000        4.1460000000       31.7610000000
