      12
 i =        1, E =       -56.8355240858
  S        10.1432799092        7.8775799872        9.1769991971
  C         8.6898517494        7.6550513956        8.2672784962
  C         7.4480418471        8.1355251863        8.7495589071
  C         8.7163036427        7.0212116663        6.9962361895
  S         4.8567197081        7.1224202019        5.8230014007
  C         6.3101483501        7.3449486404        6.7327212838
  C         7.5519578345        6.8644725223        6.2504420916
  C         6.2836968361        7.9787905296        8.0037625375
  H         7.4188930019        8.6056816197        9.7127743499
  H         9.6537580063        6.6476214758        6.6348171451
  H         7.5811069576        6.3943176982        5.2872258991
  H         5.3462421568        8.3523790765        8.3651825023
      12
 i =        2, E =       -56.8412754627
  S        10.1071816524        7.8647398933        9.1582502247
  C         8.6983031843        7.6729003760        8.2614052379
  C         7.4203314512        8.1238578683        8.7616946664
  C         8.7107855768        6.9937317603        6.9860956550
  S         4.8928182326        7.1352601437        5.8417499768
  C         6.3016967932        7.3270995352        6.7385948111
  C         7.5796690837        6.8761450671        6.2383038748
  C         6.2892139071        8.0062655755        8.0139056991
  H         7.4132847541        8.6270974501        9.7352825230
  H         9.6792498438        6.6414680850        6.6137507593
  H         7.5867149018        6.3729001991        5.2647185396
  H         5.3207506035        8.3585340670        8.3862480405
      12
 i =        3, E =       -56.8413338776
  S        10.0958995558        7.8660192767        9.1503530170
  C         8.6975708531        7.6430935275        8.2782092423
  C         7.4210676233        8.1550173051        8.7512596037
  C         8.7179903791        7.0186569629        6.9655553840
  S         4.9041004516        7.1339806175        5.8496469877
  C         6.3024291265        7.3569065614        6.7217907660
  C         7.5789322599        6.8449821443        6.2487406791
  C         6.2820097305        7.9813436263        8.0344443384
  H         7.4103227042        8.6271459089        9.7402441538
  H         9.6822239064        6.6366939448        6.6114716090
  H         7.5896772118        6.3728533552        5.2597562528
  H         5.3177761741        8.3633067987        8.3885279695
      12
 i =        4, E =       -56.8424148577
  S        10.1029800161        7.8646057890        9.1569538388
  C         8.7016385839        7.6597396614        8.2701758855
  C         7.4238588369        8.1410640536        8.7575074118
  C         8.7166064038        7.0075254988        6.9754542474
  S         4.8970199163        7.1353941582        5.8430462760
  C         6.2983614319        7.3402604126        6.7298240572
  C         7.5761408676        6.8589342252        6.2424934186
  C         6.2833939268        7.9924761998        8.0245448603
  H         7.4116540809        8.6259116383        9.7347038936
  H         9.6781637577        6.6403950097        6.6139056393
  H         7.5883458855        6.3740880173        5.2652963137
  H         5.3218362710        8.3596053618        8.3860941585
      12
 i =        5, E =       -56.8424454704
  S        10.1022813233        7.8631019882        9.1572891846
  C         8.7025287009        7.6612191945        8.2706962250
  C         7.4230782811        8.1411384833        8.7579853548
  C         8.7172503421        7.0072591855        6.9757746616
  S         4.8977186264        7.1368979797        5.8427109010
  C         6.2974712980        7.3387807622        6.7293037800
  C         7.5769218556        6.8588622096        6.2420143032
  C         6.2827495343        7.9927402444        8.0242256144
  H         7.4121838626        8.6266138096        9.7332327484
  H         9.6773055930        6.6417216322        6.6131612072
  H         7.5878159472        6.3733850989        5.2667677780
  H         5.3226946104        8.3582794370        8.3868382399
      12
 i =        6, E =       -56.8424545953
  S        10.1012815116        7.8614124618        9.1583709516
  C         8.7034017481        7.6616054839        8.2704756087
  C         7.4233381375        8.1418992231        8.7580605012
  C         8.7174684800        7.0074819220        6.9747717960
  S         4.8987184622        7.1385874494        5.8416290976
  C         6.2965982542        7.3383946271        6.7295243513
  C         7.5766615758        6.8580992826        6.2419402245
  C         6.2825318088        7.9925195059        8.0252274858
  H         7.4123352333        8.6278893863        9.7315635176
  H         9.6769099204        6.6436586749        6.6126042621
  H         7.5876647382        6.3721104625        5.2684365766
  H         5.3230901058        8.3563415459        8.3873956256
      12
 i =        7, E =       -56.8424570578
  S        10.1010508737        7.8601276486        9.1589577254
  C         8.7032557861        7.6620087073        8.2705830324
  C         7.4230047448        8.1425050949        8.7577777052
  C         8.7177456464        7.0080649130        6.9746731363
  S         4.8989491081        7.1398723139        5.8410423086
  C         6.2967441989        7.3379912056        6.7294170091
  C         7.5769953848        6.8574956334        6.2422219420
  C         6.2822542277        7.9919345088        8.0253271595
  H         7.4127960916        8.6289006159        9.7308925844
  H         9.6769439281        6.6447570202        6.6119416617
  H         7.5872037538        6.3710985997        5.2691077861
  H         5.3230562290        8.3552437631        8.3880579458
      12
 i =        8, E =       -56.8424570578
  S        10.1010508737        7.8601276486        9.1589577254
  C         8.7032557861        7.6620087073        8.2705830324
  C         7.4230047448        8.1425050949        8.7577777052
  C         8.7177456464        7.0080649130        6.9746731363
  S         4.8989491081        7.1398723139        5.8410423086
  C         6.2967441989        7.3379912056        6.7294170091
  C         7.5769953848        6.8574956334        6.2422219420
  C         6.2822542277        7.9919345088        8.0253271595
  H         7.4127960916        8.6289006159        9.7308925844
  H         9.6769439281        6.6447570202        6.6119416617
  H         7.5872037538        6.3710985997        5.2691077861
  H         5.3230562290        8.3552437631        8.3880579458
