     116
 i =        1, E =     -3518.3212677708
 Au         0.0000000000        0.0000000000        0.0000000000
 Au         0.0000000000        4.1460000000        0.0000000000
 Au         2.0730000000        2.0730000000        0.0000000000
 Au         2.0730000000        6.2190000000        0.0000000000
 Au         4.1460000000        0.0000000000        0.0000000000
 Au         4.1460000000        4.1460000000        0.0000000000
 Au         6.2190000000        2.0730000000        0.0000000000
 Au         6.2190000000        6.2190000000        0.0000000000
 Au         0.0000000000        2.0730000000        2.0730000000
 Au         0.0000000000        6.2190000000        2.0730000000
 Au         2.0730000000        0.0000000000        2.0730000000
 Au         2.0730000000        4.1460000000        2.0730000000
 Au         4.1460000000        2.0730000000        2.0730000000
 Au         4.1460000000        6.2190000000        2.0730000000
 Au         6.2190000000        0.0000000000        2.0730000000
 Au         6.2190000000        4.1460000000        2.0730000000
 Au         0.0000000000        0.0000000000        4.1460000000
 Au         0.0000000000        4.1460000000        4.1460000000
 Au         2.0730000000        2.0730000000        4.1460000000
 Au         2.0730000000        6.2190000000        4.1460000000
 Au         4.1460000000        0.0000000000        4.1460000000
 Au         4.1460000000        4.1460000000        4.1460000000
 Au         6.2190000000        2.0730000000        4.1460000000
 Au         6.2190000000        6.2190000000        4.1460000000
 Au         0.0000000000        2.0730000000        6.2190000000
 Au         0.0000000000        6.2190000000        6.2190000000
 Au         2.0730000000        0.0000000000        6.2190000000
 Au         2.0730000000        4.1460000000        6.2190000000
 Au         4.1460000000        2.0730000000        6.2190000000
 Au         4.1460000000        6.2190000000        6.2190000000
 Au         6.2190000000        0.0000000000        6.2190000000
 Au         6.2190000000        4.1460000000        6.2190000000
 Au         0.0000000000        0.0000000000        8.2920000000
 Au         0.0000000000        4.1460000000        8.2920000000
 Au         2.0730000000        2.0730000000        8.2920000000
 Au         2.0730000000        6.2190000000        8.2920000000
 Au         4.1460000000        0.0000000000        8.2920000000
 Au         4.1460000000        4.1460000000        8.2920000000
 Au         6.2190000000        2.0730000000        8.2920000000
 Au         6.2190000000        6.2190000000        8.2920000000
 Au        -0.0000040426        2.0729998178       10.3676207475
 Au        -0.0000018273        6.2189945843       10.3642610864
 Au         2.0728104643       -0.0000783456       10.3639756932
 Au         2.0728066205        4.1460859387       10.3639655966
 Au         4.1459987715        2.0729907521       10.3562124153
 Au         4.1459983145        6.2189895803       10.3674276044
 Au         6.2191911851       -0.0000780264       10.3639715335
 Au         6.2191951099        4.1460856638       10.3639612817
 Au         0.0000040396       -0.0003207376       12.4380926103
 Au         0.0000041429        4.1463292044       12.4381040028
 Au         2.0583455500        2.0730125912       12.4372386160
 Au         2.0725540755        6.2189984033       12.4380050901
 Au         4.1459982756       -0.0150885168       12.4361919275
 Au         4.1459984636        4.1609943121       12.4362359529
 Au         6.2336124872        2.0730128387       12.4372619636
 Au         6.2194473307        6.2189985195       12.4380058060
  S         4.1461129165        2.0733204701       13.8497163511
  C         4.1455017026        2.0782786216       15.6027622277
  H         2.0236213615        2.1029025906       15.7668550895
  H         6.2677304770        2.1028993461       15.7730872036
  C         2.9633656471        2.0814790984       16.3252757949
  C         5.3264323858        2.0814944639       16.3273612407
  C         2.9544839407        2.0625103644       17.6901897833
  C         5.3175386299        2.0625301315       17.6916817360
  H         2.0134593096        2.0411097062       18.2447539239
  H         6.2573839425        2.0411010010       18.2501315302
  C         4.1358503744        2.0657820788       18.4147382660
  S         4.1453921806        2.0726387398       20.1674743761
 Au        -0.0000058158       -0.0003299419       21.5798944612
 Au        -0.0000057773        4.1463204880       21.5799071997
 Au         2.0584792568        2.0729904539       21.5806907913
 Au         2.0725485573        6.2189978366       21.5799915923
 Au         4.1460044892       -0.0149572683       21.5817519166
 Au         4.1460046541        4.1610694922       21.5818042721
 Au         6.2336912954        2.0729906956       21.5807926668
 Au         6.2190000000        6.2190000000       21.5800000000
 Au         0.0000000000        2.0730000000       23.6530000000
 Au         0.0000000000        6.2190000000       23.6530000000
 Au         2.0730000000        0.0000000000       23.6530000000
 Au         2.0730000000        4.1460000000       23.6530000000
 Au         4.1460000000        2.0730000000       23.6530000000
 Au         4.1460000000        6.2190000000       23.6530000000
 Au         6.2190000000        0.0000000000       23.6530000000
 Au         6.2190000000        4.1460000000       23.6530000000
 Au         0.0000000000        0.0000000000       25.7260000000
 Au         0.0000000000        4.1460000000       25.7260000000
 Au         2.0730000000        2.0730000000       25.7260000000
 Au         2.0730000000        6.2190000000       25.7260000000
 Au         4.1460000000        0.0000000000       25.7260000000
 Au         4.1460000000        4.1460000000       25.7260000000
 Au         6.2190000000        2.0730000000       25.7260000000
 Au         6.2190000000        6.2190000000       25.7260000000
 Au         0.0000000000        2.0730000000       27.7990000000
 Au         0.0000000000        6.2190000000       27.7990000000
 Au         2.0730000000        0.0000000000       27.7990000000
 Au         2.0730000000        4.1460000000       27.7990000000
 Au         4.1460000000        2.0730000000       27.7990000000
 Au         4.1460000000        6.2190000000       27.7990000000
 Au         6.2190000000        0.0000000000       27.7990000000
 Au         6.2190000000        4.1460000000       27.7990000000
 Au         0.0000000000        0.0000000000       29.8720000000
 Au         0.0000000000        4.1460000000       29.8720000000
 Au         2.0730000000        2.0730000000       29.8720000000
 Au         2.0730000000        6.2190000000       29.8720000000
 Au         4.1460000000        0.0000000000       29.8720000000
 Au         4.1460000000        4.1460000000       29.8720000000
 Au         6.2190000000        2.0730000000       29.8720000000
 Au         6.2190000000        6.2190000000       29.8720000000
 Au         0.0000000000        2.0730000000       31.9450000000
 Au         0.0000000000        6.2190000000       31.9450000000
 Au         2.0730000000        0.0000000000       31.9450000000
 Au         2.0730000000        4.1460000000       31.9450000000
 Au         4.1460000000        2.0730000000       31.9450000000
 Au         4.1460000000        6.2190000000       31.9450000000
 Au         6.2190000000        0.0000000000       31.9450000000
 Au         6.2190000000        4.1460000000       31.9450000000
     116
 i =        2, E =     -3518.3358063195
 Au         0.0000000000        0.0000000000        0.0000000000
 Au         0.0000000000        4.1460000000        0.0000000000
 Au         2.0730000000        2.0730000000        0.0000000000
 Au         2.0730000000        6.2190000000        0.0000000000
 Au         4.1460000000        0.0000000000        0.0000000000
 Au         4.1460000000        4.1460000000        0.0000000000
 Au         6.2190000000        2.0730000000        0.0000000000
 Au         6.2190000000        6.2190000000        0.0000000000
 Au         0.0000000000        2.0730000000        2.0730000000
 Au         0.0000000000        6.2190000000        2.0730000000
 Au         2.0730000000        0.0000000000        2.0730000000
 Au         2.0730000000        4.1460000000        2.0730000000
 Au         4.1460000000        2.0730000000        2.0730000000
 Au         4.1460000000        6.2190000000        2.0730000000
 Au         6.2190000000        0.0000000000        2.0730000000
 Au         6.2190000000        4.1460000000        2.0730000000
 Au         0.0000000000        0.0000000000        4.1460000000
 Au         0.0000000000        4.1460000000        4.1460000000
 Au         2.0730000000        2.0730000000        4.1460000000
 Au         2.0730000000        6.2190000000        4.1460000000
 Au         4.1460000000        0.0000000000        4.1460000000
 Au         4.1460000000        4.1460000000        4.1460000000
 Au         6.2190000000        2.0730000000        4.1460000000
 Au         6.2190000000        6.2190000000        4.1460000000
 Au         0.0000000000        2.0730000000        6.2190000000
 Au         0.0000000000        6.2190000000        6.2190000000
 Au         2.0730000000        0.0000000000        6.2190000000
 Au         2.0730000000        4.1460000000        6.2190000000
 Au         4.1460000000        2.0730000000        6.2190000000
 Au         4.1460000000        6.2190000000        6.2190000000
 Au         6.2190000000        0.0000000000        6.2190000000
 Au         6.2190000000        4.1460000000        6.2190000000
 Au         0.0000000000        0.0000000000        8.2920000000
 Au         0.0000000000        4.1460000000        8.2920000000
 Au         2.0730000000        2.0730000000        8.2920000000
 Au         2.0730000000        6.2190000000        8.2920000000
 Au         4.1460000000        0.0000000000        8.2920000000
 Au         4.1460000000        4.1460000000        8.2920000000
 Au         6.2190000000        2.0730000000        8.2920000000
 Au         6.2190000000        6.2190000000        8.2920000000
 Au        -0.0000028666        2.0729995603       10.3775092143
 Au        -0.0000036915        6.2189713757       10.3612432548
 Au         2.0721554837       -0.0001304062       10.3594482574
 Au         2.0721391017        4.1461746533       10.3593890632
 Au         4.1460067541        2.0729431030       10.3221929067
 Au         4.1459908802        6.2189194670       10.3762230465
 Au         6.2198421979       -0.0001244053       10.3594454749
 Au         6.2198589930        4.1461688718       10.3593856723
 Au         0.0000128862       -0.0034560010       12.4390446872
 Au         0.0000133612        4.1495064499       12.4391131859
 Au         1.9985276223        2.0730490922       12.4355555197
 Au         2.0687961362        6.2189962287       12.4385726257
 Au         4.1459850344       -0.0770533670       12.4291688360
 Au         4.1459857190        4.2225764026       12.4294146627
 Au         6.2934507969        2.0730498256       12.4355615118
 Au         6.2232035715        6.2189966803       12.4385727342
  S         4.1461145910        2.0748979739       13.9090558738
  C         4.1424325992        2.0831179264       15.6261434475
  H         2.0018113192        2.1003455189       15.7598821296
  H         6.2909234199        2.1003455804       15.7668379985
  C         2.9486853787        2.0788187279       16.3078201986
  C         5.3360119249        2.0788394392       16.3125394497
  C         2.9454705335        2.0651987086       17.7053152530
  C         5.3325161364        2.0651862741       17.7096457757
  H         1.9902685639        2.0436806161       18.2508825518
  H         6.2790883973        2.0436763585       18.2569763671
  C         4.1395093749        2.0612012729       18.3904188801
  S         4.1432968479        2.0708822546       20.1080105701
 Au        -0.0000386586       -0.0032444411       21.5788837743
 Au        -0.0000386707        4.1491869172       21.5789594119
 Au         1.9981857728        2.0729730898       21.5818241299
 Au         2.0690274444        6.2189833339       21.5793883094
 Au         4.1460491588       -0.0771554643       21.5881168810
 Au         4.1460499063        4.2237019455       21.5884067426
 Au         6.2944049150        2.0729738449       21.5822218488
 Au         6.2190000000        6.2190000000       21.5800000000
 Au         0.0000000000        2.0730000000       23.6530000000
 Au         0.0000000000        6.2190000000       23.6530000000
 Au         2.0730000000        0.0000000000       23.6530000000
 Au         2.0730000000        4.1460000000       23.6530000000
 Au         4.1460000000        2.0730000000       23.6530000000
 Au         4.1460000000        6.2190000000       23.6530000000
 Au         6.2190000000        0.0000000000       23.6530000000
 Au         6.2190000000        4.1460000000       23.6530000000
 Au         0.0000000000        0.0000000000       25.7260000000
 Au         0.0000000000        4.1460000000       25.7260000000
 Au         2.0730000000        2.0730000000       25.7260000000
 Au         2.0730000000        6.2190000000       25.7260000000
 Au         4.1460000000        0.0000000000       25.7260000000
 Au         4.1460000000        4.1460000000       25.7260000000
 Au         6.2190000000        2.0730000000       25.7260000000
 Au         6.2190000000        6.2190000000       25.7260000000
 Au         0.0000000000        2.0730000000       27.7990000000
 Au         0.0000000000        6.2190000000       27.7990000000
 Au         2.0730000000        0.0000000000       27.7990000000
 Au         2.0730000000        4.1460000000       27.7990000000
 Au         4.1460000000        2.0730000000       27.7990000000
 Au         4.1460000000        6.2190000000       27.7990000000
 Au         6.2190000000        0.0000000000       27.7990000000
 Au         6.2190000000        4.1460000000       27.7990000000
 Au         0.0000000000        0.0000000000       29.8720000000
 Au         0.0000000000        4.1460000000       29.8720000000
 Au         2.0730000000        2.0730000000       29.8720000000
 Au         2.0730000000        6.2190000000       29.8720000000
 Au         4.1460000000        0.0000000000       29.8720000000
 Au         4.1460000000        4.1460000000       29.8720000000
 Au         6.2190000000        2.0730000000       29.8720000000
 Au         6.2190000000        6.2190000000       29.8720000000
 Au         0.0000000000        2.0730000000       31.9450000000
 Au         0.0000000000        6.2190000000       31.9450000000
 Au         2.0730000000        0.0000000000       31.9450000000
 Au         2.0730000000        4.1460000000       31.9450000000
 Au         4.1460000000        2.0730000000       31.9450000000
 Au         4.1460000000        6.2190000000       31.9450000000
 Au         6.2190000000        0.0000000000       31.9450000000
 Au         6.2190000000        4.1460000000       31.9450000000
     116
 i =        3, E =     -3518.3393449552
 Au         0.0000000000        0.0000000000        0.0000000000
 Au         0.0000000000        4.1460000000        0.0000000000
 Au         2.0730000000        2.0730000000        0.0000000000
 Au         2.0730000000        6.2190000000        0.0000000000
 Au         4.1460000000        0.0000000000        0.0000000000
 Au         4.1460000000        4.1460000000        0.0000000000
 Au         6.2190000000        2.0730000000        0.0000000000
 Au         6.2190000000        6.2190000000        0.0000000000
 Au         0.0000000000        2.0730000000        2.0730000000
 Au         0.0000000000        6.2190000000        2.0730000000
 Au         2.0730000000        0.0000000000        2.0730000000
 Au         2.0730000000        4.1460000000        2.0730000000
 Au         4.1460000000        2.0730000000        2.0730000000
 Au         4.1460000000        6.2190000000        2.0730000000
 Au         6.2190000000        0.0000000000        2.0730000000
 Au         6.2190000000        4.1460000000        2.0730000000
 Au         0.0000000000        0.0000000000        4.1460000000
 Au         0.0000000000        4.1460000000        4.1460000000
 Au         2.0730000000        2.0730000000        4.1460000000
 Au         2.0730000000        6.2190000000        4.1460000000
 Au         4.1460000000        0.0000000000        4.1460000000
 Au         4.1460000000        4.1460000000        4.1460000000
 Au         6.2190000000        2.0730000000        4.1460000000
 Au         6.2190000000        6.2190000000        4.1460000000
 Au         0.0000000000        2.0730000000        6.2190000000
 Au         0.0000000000        6.2190000000        6.2190000000
 Au         2.0730000000        0.0000000000        6.2190000000
 Au         2.0730000000        4.1460000000        6.2190000000
 Au         4.1460000000        2.0730000000        6.2190000000
 Au         4.1460000000        6.2190000000        6.2190000000
 Au         6.2190000000        0.0000000000        6.2190000000
 Au         6.2190000000        4.1460000000        6.2190000000
 Au         0.0000000000        0.0000000000        8.2920000000
 Au         0.0000000000        4.1460000000        8.2920000000
 Au         2.0730000000        2.0730000000        8.2920000000
 Au         2.0730000000        6.2190000000        8.2920000000
 Au         4.1460000000        0.0000000000        8.2920000000
 Au         4.1460000000        4.1460000000        8.2920000000
 Au         6.2190000000        2.0730000000        8.2920000000
 Au         6.2190000000        6.2190000000        8.2920000000
 Au         0.0000064285        2.0730010277       10.3783077897
 Au        -0.0000038085        6.2189618947       10.3603558262
 Au         2.0722597806        0.0003740773       10.3577112769
 Au         2.0722426420        4.1456885048       10.3576253303
 Au         4.1460143934        2.0729146514       10.3141520580
 Au         4.1459885296        6.2188455920       10.3761065946
 Au         6.2197335081        0.0003820220       10.3577156391
 Au         6.2197512890        4.1456809101       10.3576288809
 Au         0.0000156563       -0.0079583203       12.4402803342
 Au         0.0000162823        4.1540386509       12.4403755579
 Au         1.9798203844        2.0730392676       12.4373065757
 Au         2.0638706969        6.2190016124       12.4396392966
 Au         4.1459806415       -0.0968382668       12.4281857154
 Au         4.1459814553        4.2422138693       12.4285520034
 Au         6.3122246182        2.0730401712       12.4372792669
 Au         6.2281238506        6.2190022132       12.4396351574
  S         4.1460442057        2.0758136762       13.9097596131
  C         4.1433358813        2.0843824919       15.6322104482
  H         1.9981698000        2.0988121244       15.7584935795
  H         6.2918740581        2.0987615920       15.7671017738
  C         2.9293068545        2.0786488804       16.3231112559
  C         5.3553388077        2.0787171240       16.3260608848
  C         2.9261388453        2.0653558959       17.6914877163
  C         5.3523075330        2.0653917706       17.6937877323
  H         1.9894564085        2.0452720611       18.2505942509
  H         6.2829576019        2.0452085565       18.2585136094
  C         4.1383866569        2.0600220269       18.3850175091
  S         4.1424866396        2.0699024538       20.1063575609
 Au        -0.0000989941       -0.0072906826       21.5776063529
 Au        -0.0000993163        4.1531972846       21.5777110765
 Au         1.9782273767        2.0729976763       21.5795132766
 Au         2.0645626926        6.2189713727       21.5782208660
 Au         4.1460287541       -0.0979016240       21.5883527872
 Au         4.1460298738        4.2445918468       21.5887769380
 Au         6.3143811941        2.0729987238       21.5800117145
 Au         6.2190000000        6.2190000000       21.5800000000
 Au         0.0000000000        2.0730000000       23.6530000000
 Au         0.0000000000        6.2190000000       23.6530000000
 Au         2.0730000000        0.0000000000       23.6530000000
 Au         2.0730000000        4.1460000000       23.6530000000
 Au         4.1460000000        2.0730000000       23.6530000000
 Au         4.1460000000        6.2190000000       23.6530000000
 Au         6.2190000000        0.0000000000       23.6530000000
 Au         6.2190000000        4.1460000000       23.6530000000
 Au         0.0000000000        0.0000000000       25.7260000000
 Au         0.0000000000        4.1460000000       25.7260000000
 Au         2.0730000000        2.0730000000       25.7260000000
 Au         2.0730000000        6.2190000000       25.7260000000
 Au         4.1460000000        0.0000000000       25.7260000000
 Au         4.1460000000        4.1460000000       25.7260000000
 Au         6.2190000000        2.0730000000       25.7260000000
 Au         6.2190000000        6.2190000000       25.7260000000
 Au         0.0000000000        2.0730000000       27.7990000000
 Au         0.0000000000        6.2190000000       27.7990000000
 Au         2.0730000000        0.0000000000       27.7990000000
 Au         2.0730000000        4.1460000000       27.7990000000
 Au         4.1460000000        2.0730000000       27.7990000000
 Au         4.1460000000        6.2190000000       27.7990000000
 Au         6.2190000000        0.0000000000       27.7990000000
 Au         6.2190000000        4.1460000000       27.7990000000
 Au         0.0000000000        0.0000000000       29.8720000000
 Au         0.0000000000        4.1460000000       29.8720000000
 Au         2.0730000000        2.0730000000       29.8720000000
 Au         2.0730000000        6.2190000000       29.8720000000
 Au         4.1460000000        0.0000000000       29.8720000000
 Au         4.1460000000        4.1460000000       29.8720000000
 Au         6.2190000000        2.0730000000       29.8720000000
 Au         6.2190000000        6.2190000000       29.8720000000
 Au         0.0000000000        2.0730000000       31.9450000000
 Au         0.0000000000        6.2190000000       31.9450000000
 Au         2.0730000000        0.0000000000       31.9450000000
 Au         2.0730000000        4.1460000000       31.9450000000
 Au         4.1460000000        2.0730000000       31.9450000000
 Au         4.1460000000        6.2190000000       31.9450000000
 Au         6.2190000000        0.0000000000       31.9450000000
 Au         6.2190000000        4.1460000000       31.9450000000
     116
 i =        4, E =     -3518.3408797568
 Au         0.0000000000        0.0000000000        0.0000000000
 Au         0.0000000000        4.1460000000        0.0000000000
 Au         2.0730000000        2.0730000000        0.0000000000
 Au         2.0730000000        6.2190000000        0.0000000000
 Au         4.1460000000        0.0000000000        0.0000000000
 Au         4.1460000000        4.1460000000        0.0000000000
 Au         6.2190000000        2.0730000000        0.0000000000
 Au         6.2190000000        6.2190000000        0.0000000000
 Au         0.0000000000        2.0730000000        2.0730000000
 Au         0.0000000000        6.2190000000        2.0730000000
 Au         2.0730000000        0.0000000000        2.0730000000
 Au         2.0730000000        4.1460000000        2.0730000000
 Au         4.1460000000        2.0730000000        2.0730000000
 Au         4.1460000000        6.2190000000        2.0730000000
 Au         6.2190000000        0.0000000000        2.0730000000
 Au         6.2190000000        4.1460000000        2.0730000000
 Au         0.0000000000        0.0000000000        4.1460000000
 Au         0.0000000000        4.1460000000        4.1460000000
 Au         2.0730000000        2.0730000000        4.1460000000
 Au         2.0730000000        6.2190000000        4.1460000000
 Au         4.1460000000        0.0000000000        4.1460000000
 Au         4.1460000000        4.1460000000        4.1460000000
 Au         6.2190000000        2.0730000000        4.1460000000
 Au         6.2190000000        6.2190000000        4.1460000000
 Au         0.0000000000        2.0730000000        6.2190000000
 Au         0.0000000000        6.2190000000        6.2190000000
 Au         2.0730000000        0.0000000000        6.2190000000
 Au         2.0730000000        4.1460000000        6.2190000000
 Au         4.1460000000        2.0730000000        6.2190000000
 Au         4.1460000000        6.2190000000        6.2190000000
 Au         6.2190000000        0.0000000000        6.2190000000
 Au         6.2190000000        4.1460000000        6.2190000000
 Au         0.0000000000        0.0000000000        8.2920000000
 Au         0.0000000000        4.1460000000        8.2920000000
 Au         2.0730000000        2.0730000000        8.2920000000
 Au         2.0730000000        6.2190000000        8.2920000000
 Au         4.1460000000        0.0000000000        8.2920000000
 Au         4.1460000000        4.1460000000        8.2920000000
 Au         6.2190000000        2.0730000000        8.2920000000
 Au         6.2190000000        6.2190000000        8.2920000000
 Au         0.0000274838        2.0730075568       10.3740672864
 Au        -0.0000044262        6.2189527779       10.3595872390
 Au         2.0730222805        0.0018516081       10.3564677242
 Au         2.0730100211        4.1442273789       10.3563484574
 Au         4.1460247149        2.0728735785       10.3145656177
 Au         4.1459856792        6.2186909203       10.3699541073
 Au         6.2189672652        0.0018592205       10.3564844101
 Au         6.2189805843        4.1442203723       10.3563640426
 Au         0.0000216152       -0.0177210666       12.4428923411
 Au         0.0000225608        4.1638510532       12.4430160662
 Au         1.9680031145        2.0729801723       12.4427584437
 Au         2.0533274336        6.2190189203       12.4420441414
 Au         4.1459797670       -0.1100065202       12.4298719126
 Au         4.1459806432        4.2552957453       12.4304101243
 Au         6.3241383861        2.0729811547       12.4426734187
 Au         6.2386551471        6.2190198352       12.4420312477
  S         4.1458717820        2.0772319184       13.8903574814
  C         4.1437158404        2.0846232888       15.6495383275
  H         1.9939448632        2.0965994295       15.7562681049
  H         6.2928355555        2.0965064438       15.7661819356
  C         2.9231444419        2.0799862673       16.3185526703
  C         5.3633745315        2.0800859895       16.3200698650
  C         2.9182357825        2.0640743714       17.6967399978
  C         5.3583534333        2.0641444893       17.6981908052
  H         1.9887665602        2.0475364655       18.2513858815
  H         6.2876502007        2.0474135828       18.2609451429
  C         4.1379553455        2.0598429393       18.3675013642
  S         4.1416395565        2.0684211788       20.1246048640
 Au        -0.0003296233       -0.0163236355       21.5748217516
 Au        -0.0003309725        4.1621673853       21.5749580143
 Au         1.9639402366        2.0730829469       21.5729321651
 Au         2.0547742416        6.2189481699       21.5753819064
 Au         4.1457767521       -0.1128583250       21.5850442618
 Au         4.1457780271        4.2595897724       21.5856471730
 Au         6.3285207673        2.0730840950       21.5735206179
 Au         6.2190000000        6.2190000000       21.5800000000
 Au         0.0000000000        2.0730000000       23.6530000000
 Au         0.0000000000        6.2190000000       23.6530000000
 Au         2.0730000000        0.0000000000       23.6530000000
 Au         2.0730000000        4.1460000000       23.6530000000
 Au         4.1460000000        2.0730000000       23.6530000000
 Au         4.1460000000        6.2190000000       23.6530000000
 Au         6.2190000000        0.0000000000       23.6530000000
 Au         6.2190000000        4.1460000000       23.6530000000
 Au         0.0000000000        0.0000000000       25.7260000000
 Au         0.0000000000        4.1460000000       25.7260000000
 Au         2.0730000000        2.0730000000       25.7260000000
 Au         2.0730000000        6.2190000000       25.7260000000
 Au         4.1460000000        0.0000000000       25.7260000000
 Au         4.1460000000        4.1460000000       25.7260000000
 Au         6.2190000000        2.0730000000       25.7260000000
 Au         6.2190000000        6.2190000000       25.7260000000
 Au         0.0000000000        2.0730000000       27.7990000000
 Au         0.0000000000        6.2190000000       27.7990000000
 Au         2.0730000000        0.0000000000       27.7990000000
 Au         2.0730000000        4.1460000000       27.7990000000
 Au         4.1460000000        2.0730000000       27.7990000000
 Au         4.1460000000        6.2190000000       27.7990000000
 Au         6.2190000000        0.0000000000       27.7990000000
 Au         6.2190000000        4.1460000000       27.7990000000
 Au         0.0000000000        0.0000000000       29.8720000000
 Au         0.0000000000        4.1460000000       29.8720000000
 Au         2.0730000000        2.0730000000       29.8720000000
 Au         2.0730000000        6.2190000000       29.8720000000
 Au         4.1460000000        0.0000000000       29.8720000000
 Au         4.1460000000        4.1460000000       29.8720000000
 Au         6.2190000000        2.0730000000       29.8720000000
 Au         6.2190000000        6.2190000000       29.8720000000
 Au         0.0000000000        2.0730000000       31.9450000000
 Au         0.0000000000        6.2190000000       31.9450000000
 Au         2.0730000000        0.0000000000       31.9450000000
 Au         2.0730000000        4.1460000000       31.9450000000
 Au         4.1460000000        2.0730000000       31.9450000000
 Au         4.1460000000        6.2190000000       31.9450000000
 Au         6.2190000000        0.0000000000       31.9450000000
 Au         6.2190000000        4.1460000000       31.9450000000
