       9
 i =        0, time =        0.000, E =      -298.8431362845
 Au         0.0000000000        0.0000000000        0.0000000000
 Au         0.0000000000        0.0000000000        0.0000000000
 Au         0.0000000000        0.0000000000        0.0000000000
 Au         0.0052928967        0.0000000001        0.0060638150
 Au        -0.0134106179        0.0000000001       -0.0000000004
 Au         0.0052928969        0.0000000001       -0.0060638146
 Au         0.0000000000        0.0000000000        0.0000000000
 Au         0.0000000000        0.0000000000        0.0000000000
 Au         0.0000000000        0.0000000000        0.0000000000
