       9
 i =        0, time =        0.000, E =      -298.8518728873
 Au         0.0000000000        0.0000000000        0.0000000000
 Au         0.0000000000        0.0000000000        0.0000000000
 Au         0.0000000000        0.0000000000        0.0000000000
 Au         0.0000000002        0.0000000002       -0.0000006189
 Au         0.0000000001        0.0000000001       -0.0000000046
 Au         0.0000000002        0.0000000002        0.0000006119
 Au         0.0000000000        0.0000000000        0.0000000000
 Au         0.0000000000        0.0000000000        0.0000000000
 Au         0.0000000000        0.0000000000        0.0000000000
