       9
 i =        0, time =        0.000, E =      -298.8429494891
 Au         0.0000000000        0.0000000000        0.0000000000
 Au         0.0000000000        0.0000000000        0.0000000000
 Au         0.0000000000        0.0000000000        0.0000000000
 Au         0.0052080624        0.0000000001        0.0054394384
 Au        -0.0135583640        0.0000000001        0.0000000002
 Au         0.0052080621        0.0000000001       -0.0054394400
 Au         0.0000000000        0.0000000000        0.0000000000
 Au         0.0000000000        0.0000000000        0.0000000000
 Au         0.0000000000        0.0000000000        0.0000000000
