       9
 i =        0, time =        0.000, E =      -298.8487042443
 Au         0.0000000000        0.0000000000        0.0000000000
 Au         0.0000000000        0.0000000000        0.0000000000
 Au         0.0000000000        0.0000000000        0.0000000000
 Au         0.0000000002        0.0000000002       -0.0000325417
 Au         0.0000000001        0.0000000001        0.0000000005
 Au         0.0000000002        0.0000000002        0.0000325420
 Au         0.0000000000        0.0000000000        0.0000000000
 Au         0.0000000000        0.0000000000        0.0000000000
 Au         0.0000000000        0.0000000000        0.0000000000
