      14
 i =        1, E =       -58.0740167817
  S        10.2493532315        7.8469441925        9.1588216435
  C         8.6901216756        7.6796950322        8.3085432823
  C         7.4325438377        8.1300845183        8.7283816126
  C         8.7330625343        7.0471490313        7.0484985964
  S         4.7506466442        7.1530561444        5.8411782790
  C         6.3098783175        7.3203049016        6.6914566514
  C         7.5674561197        6.8699156020        6.2716182407
  C         6.2669375546        7.9528508971        7.9515015070
  H         9.8036501387        8.5028609278       10.2804878074
  H         7.4011799474        8.5997423729        9.6932958471
  H         9.6451914693        6.6522944113        6.6397633131
  H         5.1963498244        6.4971387876        4.7195124187
  H         7.5988200495        6.4002576048        5.3067040206
  H         5.3548086558        8.3477055763        8.3602367803
      14
 i =        2, E =       -58.0781731500
  S        10.2326647207        7.8408845099        9.1492046972
  C         8.6867435097        7.6724574676        8.2746174915
  C         7.4443938054        8.1259354416        8.7423654715
  C         8.7195379843        7.0261268705        7.0221084460
  S         4.7673352797        7.1591158084        5.8507952104
  C         6.3132565495        7.3275425616        6.7253824440
  C         7.5556061437        6.8740645125        6.2576344600
  C         6.2804620807        7.9738731601        7.9778916174
  H         9.7845805099        8.4934886154       10.2568589256
  H         7.3658981058        8.6212853643        9.7102505433
  H         9.6667385978        6.6522354098        6.6341557529
  H         5.2154193477        6.5065110566        4.7431412871
  H         7.6341019044        6.3787146734        5.2897493097
  H         5.3332614602        8.3477645484        8.3658443434
      14
 i =        3, E =       -58.0787224594
  S        10.2215729842        7.8368039604        9.1422517805
  C         8.6759079734        7.6632439763        8.2731173507
  C         7.4416177723        8.1398116665        8.7435979607
  C         8.7181400477        7.0348568803        7.0141561607
  S         4.7784270277        7.1631963237        5.8577481111
  C         6.3240920596        7.3367560419        6.7268825843
  C         7.5583822232        6.8601883739        6.2564020127
  C         6.2818600145        7.9651431007        7.9858438634
  H         9.7684132677        8.4861793387       10.2376568114
  H         7.3643442083        8.6273699885        9.7160871329
  H         9.6662062721        6.6534630765        6.6307214315
  H         5.2315865557        6.5138203358        4.7623433741
  H         7.6356558083        6.3726300719        5.2839128190
  H         5.3337937846        8.3465368651        8.3692786079
      14
 i =        4, E =       -58.0790862707
  S        10.2162678840        7.8302414263        9.1370903911
  C         8.6733530681        7.6709227168        8.2674115800
  C         7.4371963030        8.1357168384        8.7478256453
  C         8.7151926544        7.0297341655        7.0175656879
  S         4.7837321736        7.1697588237        5.8629095116
  C         6.3266469718        7.3290773084        6.7325883808
  C         7.5628037336        6.8642832279        6.2521743385
  C         6.2848073635        7.9702658088        7.9824343012
  H         9.7456762122        8.4788905665       10.2168907136
  H         7.3696327923        8.6319051649        9.7152240743
  H         9.6644239809        6.6585107640        6.6287103264
  H         5.2543235958        6.5211091135        4.7831094538
  H         7.6303672386        6.3680949001        5.2847759221
  H         5.3355760265        8.3414891752        8.3712896755
      14
 i =        5, E =       -58.0792642775
  S        10.2174013406        7.8275907685        9.1377067267
  C         8.6793407086        7.6685842045        8.2657168231
  C         7.4424850343        8.1349913700        8.7436821928
  C         8.7154176939        7.0309010260        7.0146097556
  S         4.7825987225        7.1724094683        5.8622931970
  C         6.3206593342        7.3314158492        6.7342831507
  C         7.5575150024        6.8650086484        6.2563177908
  C         6.2845823031        7.9690989821        7.9853902188
  H         9.7294597408        8.4777015543       10.2093071535
  H         7.3758785903        8.6309783228        9.7096806132
  H         9.6643926548        6.6615684142        6.6298586918
  H         5.2705400973        6.5222981246        4.7906930168
  H         7.6241214511        6.3690217387        5.2903193638
  H         5.3356073240        8.3384315283        8.3701413086
      14
 i =        6, E =       -58.0793383773
  S        10.2143305814        7.8269272649        9.1400558815
  C         8.6817627671        7.6672237610        8.2633845152
  C         7.4462010513        8.1352157317        8.7423242061
  C         8.7161089644        7.0307529940        7.0116587371
  S         4.7856694332        7.1730729592        5.8599440411
  C         6.3182372365        7.3327762903        6.7366154531
  C         7.5537989829        6.8647843238        6.2576757760
  C         6.2838910548        7.9692469976        7.9883412383
  H         9.7163012442        8.4785864140       10.2066679948
  H         7.3837289957        8.6309922772        9.7075489812
  H         9.6628508343        6.6617411563        6.6251100186
  H         5.2836986373        6.5214132615        4.7933321791
  H         7.6162710407        6.3690077761        5.2924510090
  H         5.3371491747        8.3382587917        8.3748899725
      14
 i =        7, E =       -58.0793892935
  S        10.2104384063        7.8272976794        9.1441660679
  C         8.6837237933        7.6659622449        8.2605367648
  C         7.4499852648        8.1352568404        8.7416208150
  C         8.7160246306        7.0297554303        7.0081487789
  S         4.7895616585        7.1727025116        5.8558338706
  C         6.3162762456        7.3340378284        6.7394632309
  C         7.5500147539        6.8647431638        6.2583791330
  C         6.2839753551        7.9702446111        7.9918512148
  H         9.7021181012        8.4807432329       10.2060277475
  H         7.3927964267        8.6316218357        9.7068544256
  H         9.6603739416        6.6602915025        6.6165154107
  H         5.2978817932        6.5192564438        4.7939724295
  H         7.6072035974        6.3683781985        5.2931455033
  H         5.3396260307        8.3397084747        8.3834846121
      14
 i =        8, E =       -58.0794063349
  S        10.2087721308        7.8283622538        9.1471679275
  C         8.6843257786        7.6654682585        8.2591184655
  C         7.4513931043        8.1349950555        8.7413413370
  C         8.7156342639        7.0288893747        7.0064567877
  S         4.7912278100        7.1716379266        5.8528319812
  C         6.3156741727        7.3345317797        6.7408814679
  C         7.5486069128        6.8650050421        6.2586586728
  C         6.2843658057        7.9711106068        7.9935431763
  H         9.6959241865        8.4823946429       10.2070268254
  H         7.3972890471        8.6318275093        9.7071352484
  H         9.6586278699        6.6583908481        6.6106914648
  H         5.3040757488        6.5176050300        4.7929733539
  H         7.6027109642        6.3681725573        5.2928647736
  H         5.3413722044        8.3416091120        8.3893085229
      14
 i =        9, E =       -58.0794100991
  S        10.2089098826        7.8292177894        9.1483207862
  C         8.6843403977        7.6653567231        8.2587980514
  C         7.4514878024        8.1347561595        8.7412645695
  C         8.7153345421        7.0285009549        7.0061431607
  S         4.7910902820        7.1707823585        5.8516791766
  C         6.3156597167        7.3346433585        6.7412019855
  C         7.5485122092        6.8652438072        6.2587353197
  C         6.2846653737        7.9714991277        7.9938568673
  H         9.6949956376        8.4829978862       10.2077630107
  H         7.3981408672        8.6315702924        9.7074516750
  H         9.6578804534        6.6572201705        6.6089152462
  H         5.3050042421        6.5170017981        4.7922371636
  H         7.6018591466        6.3684297180        5.2925481859
  H         5.3421194463        8.3427798517        8.3910848068
      14
 i =       10, E =       -58.0794108854
  S        10.2093758827        7.8296965191        9.1485250140
  C         8.6843080650        7.6652659788        8.2587713009
  C         7.4514236873        8.1346298113        8.7412559555
  C         8.7152351560        7.0283493656        7.0061937998
  S         4.7906239163        7.1703036501        5.8514748650
  C         6.3156917877        7.3347340288        6.7412285577
  C         7.5485763253        6.8653703506        6.2587441546
  C         6.2847650133        7.9716505736        7.9938061106
  H         9.6951018916        8.4830895500       10.2078638762
  H         7.3980397947        8.6312348756        9.7075687793
  H         9.6576474774        6.6566793697        6.6088804344
  H         5.3048980847        6.5169101189        4.7921362993
  H         7.6019602161        6.3687652489        5.2924313557
  H         5.3423527024        8.3433205548        8.3911195022
      14
 i =       11, E =       -58.0794108854
  S        10.2093758827        7.8296965191        9.1485250140
  C         8.6843080650        7.6652659788        8.2587713009
  C         7.4514236873        8.1346298113        8.7412559555
  C         8.7152351560        7.0283493656        7.0061937998
  S         4.7906239163        7.1703036501        5.8514748650
  C         6.3156917877        7.3347340288        6.7412285577
  C         7.5485763253        6.8653703506        6.2587441546
  C         6.2847650133        7.9716505736        7.9938061106
  H         9.6951018916        8.4830895500       10.2078638762
  H         7.3980397947        8.6312348756        9.7075687793
  H         9.6576474774        6.6566793697        6.6088804344
  H         5.3048980847        6.5169101189        4.7921362993
  H         7.6019602161        6.3687652489        5.2924313557
  H         5.3423527024        8.3433205548        8.3911195022
