     116
 i =        1, E =     -3518.3259027689
 Au         0.0000000000        0.0000000000        0.0000000000
 Au         0.0000000000        4.1460000000        0.0000000000
 Au         2.0730000000        2.0730000000        0.0000000000
 Au         2.0730000000        6.2190000000        0.0000000000
 Au         4.1460000000        0.0000000000        0.0000000000
 Au         4.1460000000        4.1460000000        0.0000000000
 Au         6.2190000000        2.0730000000        0.0000000000
 Au         6.2190000000        6.2190000000        0.0000000000
 Au         0.0000000000        2.0730000000        2.0730000000
 Au         0.0000000000        6.2190000000        2.0730000000
 Au         2.0730000000        0.0000000000        2.0730000000
 Au         2.0730000000        4.1460000000        2.0730000000
 Au         4.1460000000        2.0730000000        2.0730000000
 Au         4.1460000000        6.2190000000        2.0730000000
 Au         6.2190000000        0.0000000000        2.0730000000
 Au         6.2190000000        4.1460000000        2.0730000000
 Au         0.0000000000        0.0000000000        4.1460000000
 Au         0.0000000000        4.1460000000        4.1460000000
 Au         2.0730000000        2.0730000000        4.1460000000
 Au         2.0730000000        6.2190000000        4.1460000000
 Au         4.1460000000        0.0000000000        4.1460000000
 Au         4.1460000000        4.1460000000        4.1460000000
 Au         6.2190000000        2.0730000000        4.1460000000
 Au         6.2190000000        6.2190000000        4.1460000000
 Au         0.0000000000        2.0730000000        6.2190000000
 Au         0.0000000000        6.2190000000        6.2190000000
 Au         2.0730000000        0.0000000000        6.2190000000
 Au         2.0730000000        4.1460000000        6.2190000000
 Au         4.1460000000        2.0730000000        6.2190000000
 Au         4.1460000000        6.2190000000        6.2190000000
 Au         6.2190000000        0.0000000000        6.2190000000
 Au         6.2190000000        4.1460000000        6.2190000000
 Au         0.0000000000        0.0000000000        8.2920000000
 Au         0.0000000000        4.1460000000        8.2920000000
 Au         2.0730000000        2.0730000000        8.2920000000
 Au         2.0730000000        6.2190000000        8.2920000000
 Au         4.1460000000        0.0000000000        8.2920000000
 Au         4.1460000000        4.1460000000        8.2920000000
 Au         6.2190000000        2.0730000000        8.2920000000
 Au         6.2190000000        6.2190000000        8.2920000000
 Au        -0.0000041281        2.0730003585       10.3665626367
 Au        -0.0000014680        6.2189951650       10.3642909119
 Au         2.0729518210        0.0000502471       10.3642428844
 Au         2.0729490816        4.1459571370       10.3642351242
 Au         4.1459984557        2.0729927352       10.3605988851
 Au         4.1459985789        6.2189876972       10.3664544425
 Au         6.2190506068        0.0000503939       10.3642407829
 Au         6.2190534123        4.1459570053       10.3642328703
 Au         0.0000021055       -0.0003717124       12.4382846538
 Au         0.0000021879        4.1463789890       12.4382914917
 Au         2.0660953842        2.0730094215       12.4393222770
 Au         2.0725739340        6.2189991280       12.4382662324
 Au         4.1459995080       -0.0072587796       12.4386068256
 Au         4.1459997043        4.1531735982       12.4386721400
 Au         6.2258721889        2.0730096469       12.4393514976
 Au         6.2194270202        6.2189992239       12.4382671182
  S         4.1460825770        2.0732525484       14.0907895133
  C         4.1460544324        2.0781073261       15.8532093489
  H         2.0275741052        2.1029099579       16.0221203911
  H         6.2637270336        2.1029072136       16.0283152666
  C         2.9593328067        2.0817213429       16.5752757201
  C         5.3301946997        2.0817350026       16.5770569737
  C         2.9509044471        2.0622714042       17.9478291073
  C         5.3215898446        2.0622852418       17.9492386034
  H         2.0170995238        2.0410925467       18.4958263460
  H         6.2535875344        2.0410891917       18.5020210273
  C         4.1352119777        2.0659462999       18.6712276589
  S         4.1455242755        2.0727132428       20.4340530986
 Au        -0.0000047189       -0.0003793673       22.0857088640
 Au        -0.0000046826        4.1463713983       22.0857163256
 Au         2.0661683193        2.0729933561       22.0846028585
 Au         2.0725705444        6.2189975536       22.0857333769
 Au         4.1460037585       -0.0071799144       22.0853260902
 Au         4.1460039457        4.1532804918       22.0854030832
 Au         6.2259741111        2.0729936006       22.0847345537
 Au         6.2190000000        6.2190000000       22.0860000000
 Au         0.0000000000        2.0730000000       24.1590000000
 Au         0.0000000000        6.2190000000       24.1590000000
 Au         2.0730000000        0.0000000000       24.1590000000
 Au         2.0730000000        4.1460000000       24.1590000000
 Au         4.1460000000        2.0730000000       24.1590000000
 Au         4.1460000000        6.2190000000       24.1590000000
 Au         6.2190000000        0.0000000000       24.1590000000
 Au         6.2190000000        4.1460000000       24.1590000000
 Au         0.0000000000        0.0000000000       26.2320000000
 Au         0.0000000000        4.1460000000       26.2320000000
 Au         2.0730000000        2.0730000000       26.2320000000
 Au         2.0730000000        6.2190000000       26.2320000000
 Au         4.1460000000        0.0000000000       26.2320000000
 Au         4.1460000000        4.1460000000       26.2320000000
 Au         6.2190000000        2.0730000000       26.2320000000
 Au         6.2190000000        6.2190000000       26.2320000000
 Au         0.0000000000        2.0730000000       28.3050000000
 Au         0.0000000000        6.2190000000       28.3050000000
 Au         2.0730000000        0.0000000000       28.3050000000
 Au         2.0730000000        4.1460000000       28.3050000000
 Au         4.1460000000        2.0730000000       28.3050000000
 Au         4.1460000000        6.2190000000       28.3050000000
 Au         6.2190000000        0.0000000000       28.3050000000
 Au         6.2190000000        4.1460000000       28.3050000000
 Au         0.0000000000        0.0000000000       30.3780000000
 Au         0.0000000000        4.1460000000       30.3780000000
 Au         2.0730000000        2.0730000000       30.3780000000
 Au         2.0730000000        6.2190000000       30.3780000000
 Au         4.1460000000        0.0000000000       30.3780000000
 Au         4.1460000000        4.1460000000       30.3780000000
 Au         6.2190000000        2.0730000000       30.3780000000
 Au         6.2190000000        6.2190000000       30.3780000000
 Au         0.0000000000        2.0730000000       32.4510000000
 Au         0.0000000000        6.2190000000       32.4510000000
 Au         2.0730000000        0.0000000000       32.4510000000
 Au         2.0730000000        4.1460000000       32.4510000000
 Au         4.1460000000        2.0730000000       32.4510000000
 Au         4.1460000000        6.2190000000       32.4510000000
 Au         6.2190000000        0.0000000000       32.4510000000
 Au         6.2190000000        4.1460000000       32.4510000000
     116
 i =        2, E =     -3518.3324211269
 Au         0.0000000000        0.0000000000        0.0000000000
 Au         0.0000000000        4.1460000000        0.0000000000
 Au         2.0730000000        2.0730000000        0.0000000000
 Au         2.0730000000        6.2190000000        0.0000000000
 Au         4.1460000000        0.0000000000        0.0000000000
 Au         4.1460000000        4.1460000000        0.0000000000
 Au         6.2190000000        2.0730000000        0.0000000000
 Au         6.2190000000        6.2190000000        0.0000000000
 Au         0.0000000000        2.0730000000        2.0730000000
 Au         0.0000000000        6.2190000000        2.0730000000
 Au         2.0730000000        0.0000000000        2.0730000000
 Au         2.0730000000        4.1460000000        2.0730000000
 Au         4.1460000000        2.0730000000        2.0730000000
 Au         4.1460000000        6.2190000000        2.0730000000
 Au         6.2190000000        0.0000000000        2.0730000000
 Au         6.2190000000        4.1460000000        2.0730000000
 Au         0.0000000000        0.0000000000        4.1460000000
 Au         0.0000000000        4.1460000000        4.1460000000
 Au         2.0730000000        2.0730000000        4.1460000000
 Au         2.0730000000        6.2190000000        4.1460000000
 Au         4.1460000000        0.0000000000        4.1460000000
 Au         4.1460000000        4.1460000000        4.1460000000
 Au         6.2190000000        2.0730000000        4.1460000000
 Au         6.2190000000        6.2190000000        4.1460000000
 Au         0.0000000000        2.0730000000        6.2190000000
 Au         0.0000000000        6.2190000000        6.2190000000
 Au         2.0730000000        0.0000000000        6.2190000000
 Au         2.0730000000        4.1460000000        6.2190000000
 Au         4.1460000000        2.0730000000        6.2190000000
 Au         4.1460000000        6.2190000000        6.2190000000
 Au         6.2190000000        0.0000000000        6.2190000000
 Au         6.2190000000        4.1460000000        6.2190000000
 Au         0.0000000000        0.0000000000        8.2920000000
 Au         0.0000000000        4.1460000000        8.2920000000
 Au         2.0730000000        2.0730000000        8.2920000000
 Au         2.0730000000        6.2190000000        8.2920000000
 Au         4.1460000000        0.0000000000        8.2920000000
 Au         4.1460000000        4.1460000000        8.2920000000
 Au         6.2190000000        2.0730000000        8.2920000000
 Au         6.2190000000        6.2190000000        8.2920000000
 Au        -0.0000008148        2.0730045983       10.3762943271
 Au        -0.0000041139        6.2189652698       10.3597572021
 Au         2.0728214170        0.0006919359       10.3594013950
 Au         2.0728081693        4.1453679133       10.3593404296
 Au         4.1460066667        2.0729401993       10.3342878200
 Au         4.1459902257        6.2188772397       10.3752472963
 Au         6.2191782570        0.0006977419       10.3594063374
 Au         6.2191919362        4.1453622084       10.3593445729
 Au         0.0000072232       -0.0039966177       12.4405202125
 Au         0.0000077351        4.1500562139       12.4405789209
 Au         2.0216156215        2.0730553748       12.4490121187
 Au         2.0685262225        6.2189953180       12.4403872971
 Au         4.1459925087       -0.0543950415       12.4428571099
 Au         4.1459934822        4.1997446260       12.4433966042
 Au         6.2703595288        2.0730563510       12.4490408563
 Au         6.2234734989        6.2189958453       12.4403954353
  S         4.1461143465        2.0751982063       14.1115618049
  C         4.1413321147        2.0844417325       15.8689410890
  H         1.9987685916        2.0996843988       16.0133404718
  H         6.2943631663        2.0996860716       16.0203751394
  C         2.9465602784        2.0782387208       16.5582153747
  C         5.3373737477        2.0782524642       16.5643931104
  C         2.9437581137        2.0657982294       17.9598761718
  C         5.3352230587        2.0657731789       17.9654242609
  H         1.9862427892        2.0443268018       18.5042616465
  H         6.2823491160        2.0443326971       18.5109860377
  C         4.1408598647        2.0599620683       18.6567698780
  S         4.1428991457        2.0705320556       20.4123225202
 Au        -0.0000406501       -0.0038208542       22.0833815366
 Au        -0.0000407613        4.1497536617       22.0834444102
 Au         2.0213628186        2.0729716038       22.0743295587
 Au         2.0687347201        6.2189797122       22.0835345643
 Au         4.1460353817       -0.0543108693       22.0802746298
 Au         4.1460365729        4.2010559763       22.0809021102
 Au         6.2714139047        2.0729728654       22.0751249198
 Au         6.2190000000        6.2190000000       22.0860000000
 Au         0.0000000000        2.0730000000       24.1590000000
 Au         0.0000000000        6.2190000000       24.1590000000
 Au         2.0730000000        0.0000000000       24.1590000000
 Au         2.0730000000        4.1460000000       24.1590000000
 Au         4.1460000000        2.0730000000       24.1590000000
 Au         4.1460000000        6.2190000000       24.1590000000
 Au         6.2190000000        0.0000000000       24.1590000000
 Au         6.2190000000        4.1460000000       24.1590000000
 Au         0.0000000000        0.0000000000       26.2320000000
 Au         0.0000000000        4.1460000000       26.2320000000
 Au         2.0730000000        2.0730000000       26.2320000000
 Au         2.0730000000        6.2190000000       26.2320000000
 Au         4.1460000000        0.0000000000       26.2320000000
 Au         4.1460000000        4.1460000000       26.2320000000
 Au         6.2190000000        2.0730000000       26.2320000000
 Au         6.2190000000        6.2190000000       26.2320000000
 Au         0.0000000000        2.0730000000       28.3050000000
 Au         0.0000000000        6.2190000000       28.3050000000
 Au         2.0730000000        0.0000000000       28.3050000000
 Au         2.0730000000        4.1460000000       28.3050000000
 Au         4.1460000000        2.0730000000       28.3050000000
 Au         4.1460000000        6.2190000000       28.3050000000
 Au         6.2190000000        0.0000000000       28.3050000000
 Au         6.2190000000        4.1460000000       28.3050000000
 Au         0.0000000000        0.0000000000       30.3780000000
 Au         0.0000000000        4.1460000000       30.3780000000
 Au         2.0730000000        2.0730000000       30.3780000000
 Au         2.0730000000        6.2190000000       30.3780000000
 Au         4.1460000000        0.0000000000       30.3780000000
 Au         4.1460000000        4.1460000000       30.3780000000
 Au         6.2190000000        2.0730000000       30.3780000000
 Au         6.2190000000        6.2190000000       30.3780000000
 Au         0.0000000000        2.0730000000       32.4510000000
 Au         0.0000000000        6.2190000000       32.4510000000
 Au         2.0730000000        0.0000000000       32.4510000000
 Au         2.0730000000        4.1460000000       32.4510000000
 Au         4.1460000000        2.0730000000       32.4510000000
 Au         4.1460000000        6.2190000000       32.4510000000
 Au         6.2190000000        0.0000000000       32.4510000000
 Au         6.2190000000        4.1460000000       32.4510000000
     116
 i =        3, E =     -3518.3345642048
 Au         0.0000000000        0.0000000000        0.0000000000
 Au         0.0000000000        4.1460000000        0.0000000000
 Au         2.0730000000        2.0730000000        0.0000000000
 Au         2.0730000000        6.2190000000        0.0000000000
 Au         4.1460000000        0.0000000000        0.0000000000
 Au         4.1460000000        4.1460000000        0.0000000000
 Au         6.2190000000        2.0730000000        0.0000000000
 Au         6.2190000000        6.2190000000        0.0000000000
 Au         0.0000000000        2.0730000000        2.0730000000
 Au         0.0000000000        6.2190000000        2.0730000000
 Au         2.0730000000        0.0000000000        2.0730000000
 Au         2.0730000000        4.1460000000        2.0730000000
 Au         4.1460000000        2.0730000000        2.0730000000
 Au         4.1460000000        6.2190000000        2.0730000000
 Au         6.2190000000        0.0000000000        2.0730000000
 Au         6.2190000000        4.1460000000        2.0730000000
 Au         0.0000000000        0.0000000000        4.1460000000
 Au         0.0000000000        4.1460000000        4.1460000000
 Au         2.0730000000        2.0730000000        4.1460000000
 Au         2.0730000000        6.2190000000        4.1460000000
 Au         4.1460000000        0.0000000000        4.1460000000
 Au         4.1460000000        4.1460000000        4.1460000000
 Au         6.2190000000        2.0730000000        4.1460000000
 Au         6.2190000000        6.2190000000        4.1460000000
 Au         0.0000000000        2.0730000000        6.2190000000
 Au         0.0000000000        6.2190000000        6.2190000000
 Au         2.0730000000        0.0000000000        6.2190000000
 Au         2.0730000000        4.1460000000        6.2190000000
 Au         4.1460000000        2.0730000000        6.2190000000
 Au         4.1460000000        6.2190000000        6.2190000000
 Au         6.2190000000        0.0000000000        6.2190000000
 Au         6.2190000000        4.1460000000        6.2190000000
 Au         0.0000000000        0.0000000000        8.2920000000
 Au         0.0000000000        4.1460000000        8.2920000000
 Au         2.0730000000        2.0730000000        8.2920000000
 Au         2.0730000000        6.2190000000        8.2920000000
 Au         4.1460000000        0.0000000000        8.2920000000
 Au         4.1460000000        4.1460000000        8.2920000000
 Au         6.2190000000        2.0730000000        8.2920000000
 Au         6.2190000000        6.2190000000        8.2920000000
 Au         0.0000123826        2.0730098226       10.3791669776
 Au        -0.0000035189        6.2189545462       10.3581425615
 Au         2.0731607037        0.0014937000       10.3577812185
 Au         2.0731533957        4.1445934889       10.3576954237
 Au         4.1460152272        2.0729111355       10.3272912537
 Au         4.1459871217        6.2187763836       10.3773384886
 Au         6.2188332146        0.0015022021       10.3577956433
 Au         6.2188411941        4.1445852141       10.3577087543
 Au         0.0000077670       -0.0076366794       12.4419849921
 Au         0.0000084931        4.1537300436       12.4420686732
 Au         2.0049165659        2.0730490092       12.4546335538
 Au         2.0645520604        6.2189962354       12.4417819602
 Au         4.1459907338       -0.0724046014       12.4456564921
 Au         4.1459919692        4.2175052008       12.4464730041
 Au         6.2871305417        2.0730502412       12.4546115197
 Au         6.2274428136        6.2189969742       12.4417954408
  S         4.1460307219        2.0764011829       14.1124624545
  C         4.1425861644        2.0861321073       15.8675304826
  H         1.9910922430        2.0977895086       16.0111126477
  H         6.2988808331        2.0977298240       16.0202397636
  C         2.9309213019        2.0778615828       16.5702916137
  C         5.3524461733        2.0779407755       16.5741429720
  C         2.9293120964        2.0661468102       17.9504727129
  C         5.3506914743        2.0661843306       17.9537140820
  H         1.9819407821        2.0462935454       18.5043694961
  H         6.2902059851        2.0462300616       18.5132261627
  C         4.1394244378        2.0584032756       18.6571805577
  S         4.1418483727        2.0692333707       20.4110370089
 Au        -0.0000905648       -0.0070300524       22.0817985611
 Au        -0.0000910824        4.1529222103       22.0818872154
 Au         2.0037114881        2.0729958733       22.0682152475
 Au         2.0651995447        6.2189708629       22.0819555730
 Au         4.1460050788       -0.0729234079       22.0766949237
 Au         4.1460067463        4.2199233341       22.0776288078
 Au         6.2891747227        2.0729976006       22.0692519670
 Au         6.2190000000        6.2190000000       22.0860000000
 Au         0.0000000000        2.0730000000       24.1590000000
 Au         0.0000000000        6.2190000000       24.1590000000
 Au         2.0730000000        0.0000000000       24.1590000000
 Au         2.0730000000        4.1460000000       24.1590000000
 Au         4.1460000000        2.0730000000       24.1590000000
 Au         4.1460000000        6.2190000000       24.1590000000
 Au         6.2190000000        0.0000000000       24.1590000000
 Au         6.2190000000        4.1460000000       24.1590000000
 Au         0.0000000000        0.0000000000       26.2320000000
 Au         0.0000000000        4.1460000000       26.2320000000
 Au         2.0730000000        2.0730000000       26.2320000000
 Au         2.0730000000        6.2190000000       26.2320000000
 Au         4.1460000000        0.0000000000       26.2320000000
 Au         4.1460000000        4.1460000000       26.2320000000
 Au         6.2190000000        2.0730000000       26.2320000000
 Au         6.2190000000        6.2190000000       26.2320000000
 Au         0.0000000000        2.0730000000       28.3050000000
 Au         0.0000000000        6.2190000000       28.3050000000
 Au         2.0730000000        0.0000000000       28.3050000000
 Au         2.0730000000        4.1460000000       28.3050000000
 Au         4.1460000000        2.0730000000       28.3050000000
 Au         4.1460000000        6.2190000000       28.3050000000
 Au         6.2190000000        0.0000000000       28.3050000000
 Au         6.2190000000        4.1460000000       28.3050000000
 Au         0.0000000000        0.0000000000       30.3780000000
 Au         0.0000000000        4.1460000000       30.3780000000
 Au         2.0730000000        2.0730000000       30.3780000000
 Au         2.0730000000        6.2190000000       30.3780000000
 Au         4.1460000000        0.0000000000       30.3780000000
 Au         4.1460000000        4.1460000000       30.3780000000
 Au         6.2190000000        2.0730000000       30.3780000000
 Au         6.2190000000        6.2190000000       30.3780000000
 Au         0.0000000000        2.0730000000       32.4510000000
 Au         0.0000000000        6.2190000000       32.4510000000
 Au         2.0730000000        0.0000000000       32.4510000000
 Au         2.0730000000        4.1460000000       32.4510000000
 Au         4.1460000000        2.0730000000       32.4510000000
 Au         4.1460000000        6.2190000000       32.4510000000
 Au         6.2190000000        0.0000000000       32.4510000000
 Au         6.2190000000        4.1460000000       32.4510000000
     116
 i =        4, E =     -3518.3352874776
 Au         0.0000000000        0.0000000000        0.0000000000
 Au         0.0000000000        4.1460000000        0.0000000000
 Au         2.0730000000        2.0730000000        0.0000000000
 Au         2.0730000000        6.2190000000        0.0000000000
 Au         4.1460000000        0.0000000000        0.0000000000
 Au         4.1460000000        4.1460000000        0.0000000000
 Au         6.2190000000        2.0730000000        0.0000000000
 Au         6.2190000000        6.2190000000        0.0000000000
 Au         0.0000000000        2.0730000000        2.0730000000
 Au         0.0000000000        6.2190000000        2.0730000000
 Au         2.0730000000        0.0000000000        2.0730000000
 Au         2.0730000000        4.1460000000        2.0730000000
 Au         4.1460000000        2.0730000000        2.0730000000
 Au         4.1460000000        6.2190000000        2.0730000000
 Au         6.2190000000        0.0000000000        2.0730000000
 Au         6.2190000000        4.1460000000        2.0730000000
 Au         0.0000000000        0.0000000000        4.1460000000
 Au         0.0000000000        4.1460000000        4.1460000000
 Au         2.0730000000        2.0730000000        4.1460000000
 Au         2.0730000000        6.2190000000        4.1460000000
 Au         4.1460000000        0.0000000000        4.1460000000
 Au         4.1460000000        4.1460000000        4.1460000000
 Au         6.2190000000        2.0730000000        4.1460000000
 Au         6.2190000000        6.2190000000        4.1460000000
 Au         0.0000000000        2.0730000000        6.2190000000
 Au         0.0000000000        6.2190000000        6.2190000000
 Au         2.0730000000        0.0000000000        6.2190000000
 Au         2.0730000000        4.1460000000        6.2190000000
 Au         4.1460000000        2.0730000000        6.2190000000
 Au         4.1460000000        6.2190000000        6.2190000000
 Au         6.2190000000        0.0000000000        6.2190000000
 Au         6.2190000000        4.1460000000        6.2190000000
 Au         0.0000000000        0.0000000000        8.2920000000
 Au         0.0000000000        4.1460000000        8.2920000000
 Au         2.0730000000        2.0730000000        8.2920000000
 Au         2.0730000000        6.2190000000        8.2920000000
 Au         4.1460000000        0.0000000000        8.2920000000
 Au         4.1460000000        4.1460000000        8.2920000000
 Au         6.2190000000        2.0730000000        8.2920000000
 Au         6.2190000000        6.2190000000        8.2920000000
 Au         0.0000416051        2.0730260468       10.3781575350
 Au        -0.0000019463        6.2189531077       10.3574553450
 Au         2.0744195990        0.0034567622       10.3580351758
 Au         2.0744405767        4.1426511837       10.3579342917
 Au         4.1460249903        2.0728793928       10.3322896520
 Au         4.1459844068        6.2185666731       10.3746446550
 Au         6.2175684151        0.0034645114       10.3580629882
 Au         6.2175484383        4.1426439239       10.3579607290
 Au         0.0000098376       -0.0153400861       12.4443131283
 Au         0.0000109455        4.1614836289       12.4444164896
 Au         1.9976553922        2.0729730344       12.4622694121
 Au         2.0561950252        6.2190026634       12.4440157850
 Au         4.1459952275       -0.0810090247       12.4499510003
 Au         4.1459965950        4.2259730333       12.4511326299
 Au         6.2945100585        2.0729743413       12.4621523808
 Au         6.2357873322        6.2190037742       12.4440419482
  S         4.1458157387        2.0781413440       14.1018979720
  C         4.1438832216        2.0850898254       15.8750687257
  H         1.9908337969        2.0953029286       16.0123868106
  H         6.2942672920        2.0951837088       16.0233138118
  C         2.9281349221        2.0801531962       16.5686472648
  C         5.3589139253        2.0802832469       16.5695902003
  C         2.9225332977        2.0639183427       17.9550326611
  C         5.3536178062        2.0640218349       17.9560544427
  H         1.9875358605        2.0488579526       18.5008888152
  H         6.2907100080        2.0487103394       18.5119412253
  C         4.1376865445        2.0594680277       18.6484119888
  S         4.1411017608        2.0674242325       20.4211160473
 Au        -0.0002823705       -0.0137542349       22.0791626656
 Au        -0.0002839422        4.1595813732       22.0792707543
 Au         1.9942268088        2.0731024852       22.0597260615
 Au         2.0578264056        6.2189631251       22.0791123372
 Au         4.1457465483       -0.0830184891       22.0708718171
 Au         4.1457476231        4.2300884061       22.0721751446
 Au         6.2984676656        2.0731041046       22.0609203051
 Au         6.2190000000        6.2190000000       22.0860000000
 Au         0.0000000000        2.0730000000       24.1590000000
 Au         0.0000000000        6.2190000000       24.1590000000
 Au         2.0730000000        0.0000000000       24.1590000000
 Au         2.0730000000        4.1460000000       24.1590000000
 Au         4.1460000000        2.0730000000       24.1590000000
 Au         4.1460000000        6.2190000000       24.1590000000
 Au         6.2190000000        0.0000000000       24.1590000000
 Au         6.2190000000        4.1460000000       24.1590000000
 Au         0.0000000000        0.0000000000       26.2320000000
 Au         0.0000000000        4.1460000000       26.2320000000
 Au         2.0730000000        2.0730000000       26.2320000000
 Au         2.0730000000        6.2190000000       26.2320000000
 Au         4.1460000000        0.0000000000       26.2320000000
 Au         4.1460000000        4.1460000000       26.2320000000
 Au         6.2190000000        2.0730000000       26.2320000000
 Au         6.2190000000        6.2190000000       26.2320000000
 Au         0.0000000000        2.0730000000       28.3050000000
 Au         0.0000000000        6.2190000000       28.3050000000
 Au         2.0730000000        0.0000000000       28.3050000000
 Au         2.0730000000        4.1460000000       28.3050000000
 Au         4.1460000000        2.0730000000       28.3050000000
 Au         4.1460000000        6.2190000000       28.3050000000
 Au         6.2190000000        0.0000000000       28.3050000000
 Au         6.2190000000        4.1460000000       28.3050000000
 Au         0.0000000000        0.0000000000       30.3780000000
 Au         0.0000000000        4.1460000000       30.3780000000
 Au         2.0730000000        2.0730000000       30.3780000000
 Au         2.0730000000        6.2190000000       30.3780000000
 Au         4.1460000000        0.0000000000       30.3780000000
 Au         4.1460000000        4.1460000000       30.3780000000
 Au         6.2190000000        2.0730000000       30.3780000000
 Au         6.2190000000        6.2190000000       30.3780000000
 Au         0.0000000000        2.0730000000       32.4510000000
 Au         0.0000000000        6.2190000000       32.4510000000
 Au         2.0730000000        0.0000000000       32.4510000000
 Au         2.0730000000        4.1460000000       32.4510000000
 Au         4.1460000000        2.0730000000       32.4510000000
 Au         4.1460000000        6.2190000000       32.4510000000
 Au         6.2190000000        0.0000000000       32.4510000000
 Au         6.2190000000        4.1460000000       32.4510000000
