     183
 i =     114, E =    -5729.7652725748
 Au         0.0004433262        0.0008939745        0.0007100862
 Au         0.0005491992        2.9558939515        0.0003663853
 Au         0.0006551080        5.9118939285        0.0000225681
 Au         2.9564433221        0.0007880522        0.0005996978
 Au         2.9565491951        2.9557880292        0.0002559969
 Au         2.9566551039        5.9117880063       -0.0000878203
 Au         5.9124433179        0.0006821299        0.0004893093
 Au         5.9125491909        2.9556821070        0.0001456084
 Au         5.9126550997        5.9116820840       -0.0001982088
 Au         8.6704433141        0.0005833026        0.0003863150
 Au         8.6705491870        2.9555832796        0.0000426141
 Au         8.6706550958        5.9115832567       -0.0003012031
 Au        11.6264433099        0.0004773803        0.0002759265
 Au        11.6265491829        2.9554773574       -0.0000677744
 Au        11.6266550917        5.9114773344       -0.0004115916
 Au         1.4785743364        1.4790840902        2.0904829670
 Au         1.4786802093        4.4340840673        2.0901392662
 Au         1.4787861181        7.3900840443        2.0897954490
 Au         4.4345743322        1.4789781680        2.0903725786
 Au         4.4346802052        4.4339781450        2.0900288777
 Au         4.4347861140        7.3899781220        2.0896850605
 Au         7.1925743283        1.4788793406        2.0902695842
 Au         7.1926802013        4.4338793177        2.0899258833
 Au         7.1927861101        7.3898792947        2.0895820662
 Au        10.1485743242        1.4787734184        2.0901591958
 Au        10.1486801972        4.4337733954        2.0898154949
 Au        10.1487861060        7.3897733724        2.0894716777
 Au        13.1045743200        1.4786674961        2.0900488073
 Au        13.1046801930        4.4336674731        2.0897051064
 Au        13.1047861018        7.3896674502        2.0893612893
 Au         0.0005994419        0.0013801512        4.1807100535
 Au         0.0007053148        2.9563801283        4.1803663526
 Au         0.0008112236        5.9123801053        4.1800225354
 Au         2.9565994377        0.0012742290        4.1805996651
 Au         2.9567053107        2.9562742060        4.1802559642
 Au         2.9568112195        5.9122741830        4.1799121470
 Au         5.9125994335        0.0011683067        4.1804892766
 Au         5.9127053065        2.9561682837        4.1801455757
 Au         5.9128112153        5.9121682608        4.1798017585
 Au         8.6705994297        0.0010694794        4.1803862822
 Au         8.6707053026        2.9560694564        4.1800425814
 Au         8.6708112114        5.9120694334        4.1796987642
 Au        11.6265994255        0.0009635571        4.1802758938
 Au        11.6267052985        2.9559635341        4.1799321929
 Au        11.6268112073        5.9119635112        4.1795883757
 Au         1.4787304520        1.4795702670        6.2704829343
 Au         1.4788363250        4.4345702440        6.2701392335
 Au         1.4789422338        7.3905702211        6.2697954163
 Au         4.4347304478        1.4794643447        6.2703725459
 Au         4.4348363208        4.4344643218        6.2700288450
 Au         4.4349422296        7.3904642988        6.2696850278
 Au         7.1927304440        1.4793655174        6.2702695515
 Au         7.1928363169        4.4343654944        6.2699258506
 Au         7.1929422257        7.3903654715        6.2695820334
 Au        10.1487304398        1.4792595951        6.2701591631
 Au        10.1488363128        4.4342595722        6.2698154622
 Au        10.1489422216        7.3902595492        6.2694716450
 Au        13.1047304356        1.4791536728        6.2700487746
 Au        13.1048363086        4.4341536499        6.2697050737
 Au        13.1049422174        7.3901536269        6.2693612565
 Au         0.0007555575        0.0018663280        8.3607100208
 Au         0.0008614304        2.9568663050        8.3603663199
 Au         0.0009673392        5.9128662821        8.3600225027
 Au         2.9567555533        0.0017604057        8.3605996323
 Au         2.9568614263        2.9567603828        8.3602559315
 Au         2.9569673351        5.9127603598        8.3599121143
 Au         5.9127555492        0.0016544835        8.3604892439
 Au         5.9128614221        2.9566544605        8.3601455430
 Au         5.9129673309        5.9126544375        8.3598017258
 Au         8.6707555453        0.0015556561        8.3603862495
 Au         8.6708614183        2.9565556332        8.3600425487
 Au         8.6709673271        5.9125556102        8.3596987315
 Au        11.6267555411        0.0014497338        8.3602758611
 Au        11.6268614141        2.9564497109        8.3599321602
 Au        11.6269673229        5.9124496879        8.3595883430
 Au         1.4788865676        1.4800564438       10.4504829016
 Au         1.4789924406        4.4350564208       10.4501392007
 Au         1.4790983494        7.3910563978       10.4497953836
 Au         4.4348865634        1.4799505215       10.4503725132
 Au         4.4349924364        4.4349504985       10.4500288123
 Au         4.4350983452        7.3909504756       10.4496849951
 Au         7.1928865596        1.4798516941       10.4502695188
 Au         7.1929924325        4.4348516712       10.4499258179
 Au         7.1930983413        7.3908516482       10.4495820007
 Au        10.1488865554        1.4797457719       10.4501591304
 Au        10.1489924284        4.4347457489       10.4498154295
 Au        10.1490983372        7.3907457260       10.4494716123
 Au        13.1048865513        1.4796398496       10.4500487419
 Au        13.1049924242        4.4346398267       10.4497050410
 Au        13.1050983330        7.3906398037       10.4493612238
  N         4.8561230484        5.9131611940       12.0318318829
  N         9.5291046149        5.9149846925       12.0336664291
  N         7.1931055947        5.9360365928       12.0397512217
  H        10.3212642353        5.9198533338       12.6842187832
  H         4.0704383106        5.9174369547       12.6909452074
  C         8.3714516377        5.9432596746       12.7339037740
  C         5.9999653055        5.9366615372       12.7921616732
  N         8.3090837028        5.9878174405       14.0943658242
  N         5.9234779600        5.9711784994       14.0933479066
  H         9.1790422279        5.9955015358       14.6235436010
  C         7.0680979527        6.0583495034       14.8474361935
  N         6.9994131528        6.1947946328       16.1221003583
  H         7.8928300043        6.3167994654       16.6001373310
 Au         7.1990138145        5.9370837357       21.0427511516
 Au         5.9089628244        7.2065930909       22.9916526170
 Au         8.6781008231        4.4372574752       22.9918704096
 Au         5.9088639776        4.4363562988       22.9919735197
 Au         8.6781996341        7.2064942674       22.9915496233
 Au         1.4794330469        1.4817582950       25.0824827871
 Au         1.4795389199        4.4367582721       25.0821390862
 Au         1.4796448287        7.3927582491       25.0817952690
 Au         4.4354330428        1.4816523728       25.0823723987
 Au         4.4355389158        4.4366523498       25.0820286978
 Au         4.4356448246        7.3926523269       25.0816848806
 Au         7.1934330389        1.4815535454       25.0822694043
 Au         7.1935389119        4.4365535225       25.0819257034
 Au         7.1936448207        7.3925534995       25.0815818862
 Au        10.1494330348        1.4814476232       25.0821590159
 Au        10.1495389077        4.4364476002       25.0818153150
 Au        10.1496448165        7.3924475773       25.0814714978
 Au        13.1054330306        1.4813417009       25.0820486274
 Au        13.1055389036        4.4363416779       25.0817049265
 Au        13.1056448124        7.3923416550       25.0813611093
 Au         0.0014581524        0.0040543560       27.1727098736
 Au         0.0015640254        2.9590543331       27.1723661727
 Au         0.0016699342        5.9150543101       27.1720223555
 Au         2.9574581483        0.0039484338       27.1725994851
 Au         2.9575640212        2.9589484108       27.1722557843
 Au         2.9576699300        5.9149483879       27.1719119671
 Au         5.9134581441        0.0038425115       27.1724890967
 Au         5.9135640171        2.9588424886       27.1721453958
 Au         5.9136699259        5.9148424656       27.1718015786
 Au         8.6714581402        0.0037436842       27.1723861023
 Au         8.6715640132        2.9587436612       27.1720424014
 Au         8.6716699220        5.9147436383       27.1716985842
 Au        11.6274581361        0.0036377619       27.1722757139
 Au        11.6275640091        2.9586377389       27.1719320130
 Au        11.6276699179        5.9146377160       27.1715881958
 Au         1.4795891625        1.4822444718       29.2624827544
 Au         1.4796950355        4.4372444489       29.2621390535
 Au         1.4798009443        7.3932444259       29.2617952363
 Au         4.4355891584        1.4821385495       29.2623723660
 Au         4.4356950314        4.4371385266       29.2620286651
 Au         4.4358009402        7.3931385036       29.2616848479
 Au         7.1935891545        1.4820397222       29.2622693716
 Au         7.1936950275        4.4370396992       29.2619256707
 Au         7.1938009363        7.3930396763       29.2615818535
 Au        10.1495891504        1.4819337999       29.2621589831
 Au        10.1496950233        4.4369337770       29.2618152823
 Au        10.1498009321        7.3929337540       29.2614714651
 Au        13.1055891462        1.4818278777       29.2620485947
 Au        13.1056950192        4.4368278547       29.2617048938
 Au        13.1058009280        7.3928278317       29.2613610766
 Au         0.0016142680        0.0045405328       31.3527098409
 Au         0.0017201410        2.9595405099       31.3523661400
 Au         0.0018260498        5.9155404869       31.3520223228
 Au         2.9576142639        0.0044346105       31.3525994524
 Au         2.9577201368        2.9594345876       31.3522557515
 Au         2.9578260457        5.9154345646       31.3519119344
 Au         5.9136142597        0.0043286883       31.3524890640
 Au         5.9137201327        2.9593286653       31.3521453631
 Au         5.9138260415        5.9153286424       31.3518015459
 Au         8.6716142558        0.0042298609       31.3523860696
 Au         8.6717201288        2.9592298380       31.3520423687
 Au         8.6718260376        5.9152298150       31.3516985515
 Au        11.6276142517        0.0041239387       31.3522756812
 Au        11.6277201247        2.9591239157       31.3519319803
 Au        11.6278260335        5.9151238927       31.3515881631
 Au         1.4797452782        1.4827306486       33.4424827217
 Au         1.4798511511        4.4377306256       33.4421390208
 Au         1.4799570599        7.3937306027       33.4417952036
 Au         4.4357452740        1.4826247263       33.4423723332
 Au         4.4358511470        4.4376247033       33.4420286324
 Au         4.4359570558        7.3936246804       33.4416848152
 Au         7.1937452701        1.4825258990       33.4422693389
 Au         7.1938511431        4.4375258760       33.4419256380
 Au         7.1939570519        7.3935258530       33.4415818208
 Au        10.1497452660        1.4824199767       33.4421589504
 Au        10.1498511390        4.4374199537       33.4418152496
 Au        10.1499570478        7.3934199308       33.4414714324
 Au        13.1057452618        1.4823140544       33.4420485620
 Au        13.1058511348        4.4373140315       33.4417048611
 Au        13.1059570436        7.3933140085       33.4413610439
