     183
 i =     114, E =    -5729.7726030095
 Au         0.0004656303        0.0009401890        0.0007504349
 Au         0.0005776568        2.9559401648        0.0003876378
 Au         0.0006897213        5.9119401406        0.0000247180
 Au         2.9564656259        0.0008281103        0.0006338948
 Au         2.9565776525        2.9558280861        0.0002710978
 Au         2.9566897169        5.9118280619       -0.0000918221
 Au         5.9124656215        0.0007160316        0.0005173547
 Au         5.9125776481        2.9557160074        0.0001545577
 Au         5.9126897126        5.9117159832       -0.0002083622
 Au         8.6704656174        0.0006114603        0.0004086208
 Au         8.6705776440        2.9556114360        0.0000458237
 Au         8.6706897085        5.9116114118       -0.0003170961
 Au        11.6264656130        0.0004993816        0.0002920807
 Au        11.6265776396        2.9554993573       -0.0000707164
 Au        11.6266897041        5.9114993331       -0.0004336362
 Au         1.4786040681        1.4791407320        2.0905106877
 Au         1.4787160946        4.4341407078        2.0901478906
 Au         1.4788281591        7.3901406836        2.0897849708
 Au         4.4346040637        1.4790286533        2.0903941476
 Au         4.4347160903        4.4340286291        2.0900313505
 Au         4.4348281547        7.3900286049        2.0896684307
 Au         7.1926040596        1.4789240820        2.0902854136
 Au         7.1927160862        4.4339240577        2.0899226166
 Au         7.1928281506        7.3899240335        2.0895596968
 Au        10.1486040552        1.4788120033        2.0901688736
 Au        10.1487160818        4.4338119791        2.0898060765
 Au        10.1488281463        7.3898119548        2.0894431567
 Au        13.1046040508        1.4786999246        2.0900523335
 Au        13.1047160774        4.4336999004        2.0896895364
 Au        13.1048281419        7.3896998761        2.0893266166
 Au         0.0006304458        0.0014533780        4.1807504004
 Au         0.0007424723        2.9564533537        4.1803876033
 Au         0.0008545368        5.9124533295        4.1800246835
 Au         2.9566304414        0.0013412993        4.1806338603
 Au         2.9567424679        2.9563412751        4.1802710632
 Au         2.9568545324        5.9123412508        4.1799081434
 Au         5.9126304370        0.0012292206        4.1805173202
 Au         5.9127424636        2.9562291964        4.1801545232
 Au         5.9128545280        5.9122291721        4.1797916033
 Au         8.6706304329        0.0011246492        4.1804085863
 Au         8.6707424595        2.9561246250        4.1800457892
 Au         8.6708545239        5.9121246008        4.1796828694
 Au        11.6266304285        0.0010125705        4.1802920462
 Au        11.6267424551        2.9560125463        4.1799292491
 Au        11.6268545196        5.9120125221        4.1795663293
 Au         1.4787688836        1.4796539210        6.2705106532
 Au         1.4788809101        4.4346538968        6.2701478561
 Au         1.4789929746        7.3906538725        6.2697849363
 Au         4.4347688792        1.4795418423        6.2703941131
 Au         4.4348809057        4.4345418181        6.2700313160
 Au         4.4349929702        7.3905417938        6.2696683962
 Au         7.1927688751        1.4794372709        6.2702853791
 Au         7.1928809016        4.4344372467        6.2699225821
 Au         7.1929929661        7.3904372225        6.2695596622
 Au        10.1487688707        1.4793251922        6.2701688390
 Au        10.1488808973        4.4343251680        6.2698060420
 Au        10.1489929617        7.3903251438        6.2694431222
 Au        13.1047688663        1.4792131135        6.2700522990
 Au        13.1048808929        4.4342130893        6.2696895019
 Au        13.1049929574        7.3902130651        6.2693265821
 Au         0.0007952613        0.0019665669        8.3607503659
 Au         0.0009072878        2.9569665427        8.3603875688
 Au         0.0010193523        5.9129665185        8.3600246490
 Au         2.9567952569        0.0018544882        8.3606338258
 Au         2.9569072834        2.9568544640        8.3602710287
 Au         2.9570193479        5.9128544398        8.3599081089
 Au         5.9127952525        0.0017424096        8.3605172857
 Au         5.9129072790        2.9567423853        8.3601544886
 Au         5.9130193435        5.9127423611        8.3597915688
 Au         8.6707952484        0.0016378382        8.3604085517
 Au         8.6709072750        2.9566378139        8.3600457547
 Au         8.6710193394        5.9126377897        8.3596828349
 Au        11.6267952440        0.0015257595        8.3602920116
 Au        11.6269072706        2.9565257353        8.3599292146
 Au        11.6270193350        5.9125257110        8.3595662948
 Au         1.4789336990        1.4801671099       10.4505106186
 Au         1.4790457256        4.4351670857       10.4501478216
 Au         1.4791577901        7.3911670615       10.4497849018
 Au         4.4349336947        1.4800550313       10.4503940786
 Au         4.4350457212        4.4350550070       10.4500312815
 Au         4.4351577857        7.3910549828       10.4496683617
 Au         7.1929336906        1.4799504599       10.4502853446
 Au         7.1930457171        4.4349504357       10.4499225476
 Au         7.1931577816        7.3909504114       10.4495596277
 Au        10.1489336862        1.4798383812       10.4501688045
 Au        10.1490457127        4.4348383570       10.4498060075
 Au        10.1491577772        7.3908383327       10.4494430876
 Au        13.1049336818        1.4797263025       10.4500522644
 Au        13.1050457084        4.4347262783       10.4496894674
 Au        13.1051577728        7.3907262540       10.4493265476
  N         4.8561616137        5.9132275958       12.0318344690
  N         9.5291642782        5.9150519199       12.0336487324
  N         7.1931653143        5.9361456316       12.0397382507
  H        10.3189098153        5.9118963587       12.6862327669
  H         4.0654636232        5.9254826566       12.6853093244
  C         8.3763992913        5.9214126191       12.7251092616
  C         6.0022957969        5.9590672606       12.8042341912
  N         8.3367501145        5.9108369631       14.0681287265
  N         5.9539150125        6.0404979879       14.1194536467
  H         9.1905399914        5.9533100604       14.6239271883
  C         7.1395650907        6.0729349763       14.8330699003
  N         7.3814983813        6.2248385923       16.0875657735
  H         6.5536321525        6.3897277177       16.6604137510
 Au         7.1927652841        5.9372509420       21.0427381747
 Au         5.9142677477        7.1940161537       22.9916341696
 Au         8.6706405528        4.4374341966       22.9918640492
 Au         5.9141631311        4.4365387885       22.9919729092
 Au         8.6707451315        7.1939115618       22.9915254323
 Au         1.4795106321        1.4819635168       25.0825104978
 Au         1.4796226587        4.4369634926       25.0821477008
 Au         1.4797347231        7.3929634684       25.0817847809
 Au         4.4355106277        1.4818514382       25.0823939577
 Au         4.4356226543        4.4368514139       25.0820311607
 Au         4.4357347187        7.3928513897       25.0816682408
 Au         7.1935106236        1.4817468668       25.0822852238
 Au         7.1936226502        4.4367468425       25.0819224267
 Au         7.1937347147        7.3927468183       25.0815595069
 Au        10.1495106192        1.4816347881       25.0821686837
 Au        10.1496226458        4.4366347639       25.0818058866
 Au        10.1497347103        7.3926347396       25.0814429668
 Au        13.1055106149        1.4815227094       25.0820521436
 Au        13.1056226414        4.4365226852       25.0816893465
 Au        13.1057347059        7.3925226609       25.0813264267
 Au         0.0015370098        0.0042761628       27.1727502105
 Au         0.0016490363        2.9592761386       27.1723874134
 Au         0.0017611008        5.9152761143       27.1720244936
 Au         2.9575370054        0.0041640841       27.1726336704
 Au         2.9576490320        2.9591640599       27.1722708734
 Au         2.9577610964        5.9151640356       27.1719079535
 Au         5.9135370010        0.0040520054       27.1725171303
 Au         5.9136490276        2.9590519812       27.1721543333
 Au         5.9137610921        5.9150519569       27.1717914135
 Au         8.6715369969        0.0039474340       27.1724083964
 Au         8.6716490235        2.9589474098       27.1720455993
 Au         8.6717610880        5.9149473856       27.1716826795
 Au        11.6275369925        0.0038353553       27.1722918563
 Au        11.6276490191        2.9588353311       27.1719290592
 Au        11.6277610836        5.9148353069       27.1715661394
 Au         1.4796754476        1.4824767058       29.2625104633
 Au         1.4797874741        4.4374766816       29.2621476662
 Au         1.4798995386        7.3934766573       29.2617847464
 Au         4.4356754432        1.4823646271       29.2623939232
 Au         4.4357874698        4.4373646029       29.2620311261
 Au         4.4358995342        7.3933645787       29.2616682063
 Au         7.1936754391        1.4822600557       29.2622851892
 Au         7.1937874657        4.4372600315       29.2619223922
 Au         7.1938995301        7.3932600073       29.2615594724
 Au        10.1496754347        1.4821479770       29.2621686492
 Au        10.1497874613        4.4371479528       29.2618058521
 Au        10.1498995258        7.3931479286       29.2614429323
 Au        13.1056754303        1.4820358984       29.2620521091
 Au        13.1057874569        4.4370358741       29.2616893120
 Au        13.1058995214        7.3930358499       29.2613263922
 Au         0.0017018253        0.0047893517       31.3527501760
 Au         0.0018138518        2.9597893275       31.3523873789
 Au         0.0019259163        5.9157893033       31.3520244591
 Au         2.9577018209        0.0046772730       31.3526336359
 Au         2.9578138474        2.9596772488       31.3522708388
 Au         2.9579259119        5.9156772246       31.3519079190
 Au         5.9137018165        0.0045651944       31.3525170958
 Au         5.9138138431        2.9595651701       31.3521542988
 Au         5.9139259075        5.9155651459       31.3517913789
 Au         8.6717018124        0.0044606230       31.3524083619
 Au         8.6718138390        2.9594605988       31.3520455648
 Au         8.6719259035        5.9154605745       31.3516826450
 Au        11.6277018080        0.0043485443       31.3522918218
 Au        11.6278138346        2.9593485201       31.3519290247
 Au        11.6279258991        5.9153484958       31.3515661049
 Au         1.4798402631        1.4829898948       33.4425104288
 Au         1.4799522896        4.4379898705       33.4421476317
 Au         1.4800643541        7.3939898463       33.4417847119
 Au         4.4358402587        1.4828778161       33.4423938887
 Au         4.4359522852        4.4378777918       33.4420310916
 Au         4.4360643497        7.3938777676       33.4416681718
 Au         7.1938402546        1.4827732447       33.4422851547
 Au         7.1939522811        4.4377732205       33.4419223577
 Au         7.1940643456        7.3937731962       33.4415594379
 Au        10.1498402502        1.4826611660       33.4421686146
 Au        10.1499522768        4.4376611418       33.4418058176
 Au        10.1500643412        7.3936611175       33.4414428978
 Au        13.1058402458        1.4825490873       33.4420520746
 Au        13.1059522724        4.4375490631       33.4416892775
 Au        13.1060643369        7.3935490389       33.4413263577
