       9
 i =        0, time =        0.000, E =      -298.8487042442
 Au         0.0000000000        0.0000000000        0.0000000000
 Au         0.0000000000        0.0000000000        0.0000000000
 Au         0.0000000000        0.0000000000        0.0000000000
 Au         0.0000000002        0.0000000002       -0.0000298335
 Au         0.0000000001        0.0000000001        0.0000000004
 Au         0.0000000002        0.0000000002        0.0000298337
 Au         0.0000000000        0.0000000000        0.0000000000
 Au         0.0000000000        0.0000000000        0.0000000000
 Au         0.0000000000        0.0000000000        0.0000000000
