       9
 i =        0, time =        0.000, E =      -298.8439771923
 Au         0.0000000000        0.0000000000        0.0000000000
 Au         0.0000000000        0.0000000000        0.0000000000
 Au         0.0000000000        0.0000000000        0.0000000000
 Au         0.0142173550        0.0000000001        0.0005589275
 Au        -0.0351515283        0.0000000001        0.0000000013
 Au         0.0142173555        0.0000000001       -0.0005589288
 Au         0.0000000000        0.0000000000        0.0000000000
 Au         0.0000000000        0.0000000000        0.0000000000
 Au         0.0000000000        0.0000000000        0.0000000000
